!- Windows Line endings 

VERSION,
    9.5;                      !- Version Identifier

SIMULATIONCONTROL,
    Yes,                      !- Do Zone Sizing Calculation
    Yes,                      !- Do System Sizing Calculation
    No,                       !- Do Plant Sizing Calculation
    Yes,                      !- Run Simulation for Sizing Periods
    Yes,                      !- Run Simulation for Weather File Run Periods
    Yes,                      !- Do HVAC Sizing Simulation for Sizing Periods
    25;                       !- Maximum Number of HVAC Sizing Simulation Passes

BUILDING,
    sf_GreatFallsMT_Base Elec_NV,    !- Name
    0,                        !- North Axis
    City,                     !- Terrain
    0.04,                     !- Loads Convergence Tolerance Value
    0.4,                      !- Temperature Convergence Tolerance Value
    FullInteriorAndExterior,    !- Solar Distribution
    25,                       !- Maximum Number of Warmup Days
    6;                        !- Minimum Number of Warmup Days

ZONEAIRCONTAMINANTBALANCE,
    Yes,                      !- Carbon Dioxide Concentration
    CO2_Schedule,             !- Outdoor Carbon Dioxide Schedule Name
    No;                       !- Generic Contaminant Concentration

TIMESTEP,
    4;                        !- Number of Timesteps per Hour

SizingPeriod:DesignDay,
    Great Falls Intl Arpt Ann Htg 99.6% Condns DB,    !- Name
    1,                        !- Month
    21,                       !- Day of Month
    WinterDesignDay,          !- Day Type
    -26.8,                    !- Maximum DryBulb Temperature
    0,                        !- Daily DryBulb Temperature Range
    DefaultMultipliers,       !- DryBulb Temperature Range Modifier Type
    ,                         !- DryBulb Temperature Range Modifier Day Schedule Name
    Wetbulb,                  !- Humidity Condition Type
    -26.8,                    !- Wetbulb or DewPoint at Maximum DryBulb
    ,                         !- Humidity Condition Day Schedule Name
    ,                         !- Humidity Ratio at Maximum DryBulb
    ,                         !- Enthalpy at Maximum DryBulb
    ,                         !- Daily WetBulb Temperature Range
    88606,                    !- Barometric Pressure
    2.7,                      !- Wind Speed
    220,                      !- Wind Direction
    No,                       !- Rain Indicator
    No,                       !- Snow Indicator
    No,                       !- Daylight Saving Time Indicator
    ASHRAEClearSky,           !- Solar Model Indicator
    ,                         !- Beam Solar Day Schedule Name
    ,                         !- Diffuse Solar Day Schedule Name
    ,                         !- ASHRAE Clear Sky Optical Depth for Beam Irradiance taub
    ,                         !- ASHRAE Clear Sky Optical Depth for Diffuse Irradiance taud
    0;                        !- Sky Clearness

SizingPeriod:DesignDay,
    Great Falls Intl Arpt Ann Htg 99% Condns DB,    !- Name
    1,                        !- Month
    21,                       !- Day of Month
    WinterDesignDay,          !- Day Type
    -22.8,                    !- Maximum DryBulb Temperature
    0,                        !- Daily DryBulb Temperature Range
    DefaultMultipliers,       !- DryBulb Temperature Range Modifier Type
    ,                         !- DryBulb Temperature Range Modifier Day Schedule Name
    Wetbulb,                  !- Humidity Condition Type
    -22.8,                    !- Wetbulb or DewPoint at Maximum DryBulb
    ,                         !- Humidity Condition Day Schedule Name
    ,                         !- Humidity Ratio at Maximum DryBulb
    ,                         !- Enthalpy at Maximum DryBulb
    ,                         !- Daily WetBulb Temperature Range
    88606,                    !- Barometric Pressure
    2.7,                      !- Wind Speed
    220,                      !- Wind Direction
    No,                       !- Rain Indicator
    No,                       !- Snow Indicator
    No,                       !- Daylight Saving Time Indicator
    ASHRAEClearSky,           !- Solar Model Indicator
    ,                         !- Beam Solar Day Schedule Name
    ,                         !- Diffuse Solar Day Schedule Name
    ,                         !- ASHRAE Clear Sky Optical Depth for Beam Irradiance taub
    ,                         !- ASHRAE Clear Sky Optical Depth for Diffuse Irradiance taud
    0;                        !- Sky Clearness

SizingPeriod:DesignDay,
    Great Falls Intl Arpt Ann Clg .4% Condns DB=>MWB,    !- Name
    7,                        !- Month
    21,                       !- Day of Month
    SummerDesignDay,          !- Day Type
    33.4,                     !- Maximum DryBulb Temperature
    16.2,                     !- Daily DryBulb Temperature Range
    DefaultMultipliers,       !- DryBulb Temperature Range Modifier Type
    ,                         !- DryBulb Temperature Range Modifier Day Schedule Name
    Wetbulb,                  !- Humidity Condition Type
    16.1,                     !- Wetbulb or DewPoint at Maximum DryBulb
    ,                         !- Humidity Condition Day Schedule Name
    ,                         !- Humidity Ratio at Maximum DryBulb
    ,                         !- Enthalpy at Maximum DryBulb
    ,                         !- Daily WetBulb Temperature Range
    88606,                    !- Barometric Pressure
    4.9,                      !- Wind Speed
    240,                      !- Wind Direction
    No,                       !- Rain Indicator
    No,                       !- Snow Indicator
    No,                       !- Daylight Saving Time Indicator
    ASHRAETau,                !- Solar Model Indicator
    ,                         !- Beam Solar Day Schedule Name
    ,                         !- Diffuse Solar Day Schedule Name
    0.291,                    !- ASHRAE Clear Sky Optical Depth for Beam Irradiance taub
    2.494;                    !- ASHRAE Clear Sky Optical Depth for Diffuse Irradiance taud

SizingPeriod:DesignDay,
    Great Falls Intl Arpt Ann Clg 1% Condns DB=>MWB,    !- Name
    7,                        !- Month
    21,                       !- Day of Month
    SummerDesignDay,          !- Day Type
    31.5,                     !- Maximum DryBulb Temperature
    16.2,                     !- Daily DryBulb Temperature Range
    DefaultMultipliers,       !- DryBulb Temperature Range Modifier Type
    ,                         !- DryBulb Temperature Range Modifier Day Schedule Name
    Wetbulb,                  !- Humidity Condition Type
    15.7,                     !- Wetbulb or DewPoint at Maximum DryBulb
    ,                         !- Humidity Condition Day Schedule Name
    ,                         !- Humidity Ratio at Maximum DryBulb
    ,                         !- Enthalpy at Maximum DryBulb
    ,                         !- Daily WetBulb Temperature Range
    88606,                    !- Barometric Pressure
    4.9,                      !- Wind Speed
    240,                      !- Wind Direction
    No,                       !- Rain Indicator
    No,                       !- Snow Indicator
    No,                       !- Daylight Saving Time Indicator
    ASHRAETau,                !- Solar Model Indicator
    ,                         !- Beam Solar Day Schedule Name
    ,                         !- Diffuse Solar Day Schedule Name
    0.291,                    !- ASHRAE Clear Sky Optical Depth for Beam Irradiance taub
    2.494;                    !- ASHRAE Clear Sky Optical Depth for Diffuse Irradiance taud

RUNPERIOD,
    Annual,                   !- Name
    1,                        !- Begin Month
    1,                        !- Begin Day of Month
    ,                         !- Begin Year
    12,                       !- End Month
    31,                       !- End Day of Month
    ,                         !- End Year
    ,                         !- Day of Week for Start Day
    Yes,                      !- Use Weather File Holidays and Special Days
    Yes,                      !- Use Weather File Daylight Saving Period
    No,                       !- Apply Weekend Holiday Rule
    Yes,                      !- Use Weather File Rain Indicators
    Yes,                      !- Use Weather File Snow Indicators
    No;                       !- Treat Weather as Actual

SCHEDULETYPELIMITS,
    Number,                   !- Name
    ,                         !- Lower Limit Value
    ,                         !- Upper Limit Value
    ,                         !- Numeric Type
    Dimensionless;            !- Unit Type

SCHEDULETYPELIMITS,
    Any Number,               !- Name
    ,                         !- Lower Limit Value
    ,                         !- Upper Limit Value
    ,                         !- Numeric Type
    Dimensionless;            !- Unit Type

SCHEDULETYPELIMITS,
    ANYNUMBER,                !- Name
    ,                         !- Lower Limit Value
    ,                         !- Upper Limit Value
    ,                         !- Numeric Type
    Dimensionless;            !- Unit Type

SCHEDULETYPELIMITS,
    Fraction,                 !- Name
    ,                         !- Lower Limit Value
    ,                         !- Upper Limit Value
    ,                         !- Numeric Type
    Dimensionless;            !- Unit Type

SCHEDULETYPELIMITS,
    On/Off,                   !- Name
    ,                         !- Lower Limit Value
    ,                         !- Upper Limit Value
    ,                         !- Numeric Type
    Dimensionless;            !- Unit Type

SCHEDULE:COMPACT,
    Phius_Lighting,           !- Name
    Fraction,                 !- Schedule Type Limits Name
    Through: 12/31,           !- Field 1
    For: SummerDesignDay WinterDesignDay,    !- Field 2
    Until: 24:00,             !- Field 3
    0,                        !- Field 4
    For: AllOtherDays,        !- Field 5
    Until: 1:00,              !- Field 6
    0.008,                    !- Field 7
    Until: 2:00,              !- Field 8
    0.008,                    !- Field 9
    Until: 3:00,              !- Field 10
    0.008,                    !- Field 11
    Until: 4:00,              !- Field 12
    0.008,                    !- Field 13
    Until: 5:00,              !- Field 14
    0.024,                    !- Field 15
    Until: 6:00,              !- Field 16
    0.05,                     !- Field 17
    Until: 7:00,              !- Field 18
    0.056,                    !- Field 19
    Until: 8:00,              !- Field 20
    0.05,                     !- Field 21
    Until: 9:00,              !- Field 22
    0.022,                    !- Field 23
    Until: 10:00,             !- Field 24
    0.015,                    !- Field 25
    Until: 11:00,             !- Field 26
    0.015,                    !- Field 27
    Until: 12:00,             !- Field 28
    0.015,                    !- Field 29
    Until: 13:00,             !- Field 30
    0.015,                    !- Field 31
    Until: 14:00,             !- Field 32
    0.015,                    !- Field 33
    Until: 15:00,             !- Field 34
    0.026,                    !- Field 35
    Until: 16:00,             !- Field 36
    0.015,                    !- Field 37
    Until: 17:00,             !- Field 38
    0.056,                    !- Field 39
    Until: 18:00,             !- Field 40
    0.078,                    !- Field 41
    Until: 19:00,             !- Field 42
    0.105,                    !- Field 43
    Until: 20:00,             !- Field 44
    0.126,                    !- Field 45
    Until: 21:00,             !- Field 46
    0.128,                    !- Field 47
    Until: 22:00,             !- Field 48
    0.088,                    !- Field 49
    Until: 23:00,             !- Field 50
    0.049,                    !- Field 51
    Until: 24:00,             !- Field 52
    0.02;                     !- Field 53

SCHEDULE:COMPACT,
    Phius_MELs,               !- Name
    Fraction,                 !- Schedule Type Limits Name
    Through: 12/31,           !- Field 1
    For: SummerDesignDay WinterDesignDay,    !- Field 2
    Until: 24:00,             !- Field 3
    0,                        !- Field 4
    For: AllOtherDays,        !- Field 5
    Until: 1:00,              !- Field 6
    0.008,                    !- Field 7
    Until: 2:00,              !- Field 8
    0.008,                    !- Field 9
    Until: 3:00,              !- Field 10
    0.008,                    !- Field 11
    Until: 4:00,              !- Field 12
    0.008,                    !- Field 13
    Until: 5:00,              !- Field 14
    0.024,                    !- Field 15
    Until: 6:00,              !- Field 16
    0.05,                     !- Field 17
    Until: 7:00,              !- Field 18
    0.056,                    !- Field 19
    Until: 8:00,              !- Field 20
    0.05,                     !- Field 21
    Until: 9:00,              !- Field 22
    0.022,                    !- Field 23
    Until: 10:00,             !- Field 24
    0.015,                    !- Field 25
    Until: 11:00,             !- Field 26
    0.015,                    !- Field 27
    Until: 12:00,             !- Field 28
    0.015,                    !- Field 29
    Until: 13:00,             !- Field 30
    0.015,                    !- Field 31
    Until: 14:00,             !- Field 32
    0.015,                    !- Field 33
    Until: 15:00,             !- Field 34
    0.026,                    !- Field 35
    Until: 16:00,             !- Field 36
    0.015,                    !- Field 37
    Until: 17:00,             !- Field 38
    0.056,                    !- Field 39
    Until: 18:00,             !- Field 40
    0.078,                    !- Field 41
    Until: 19:00,             !- Field 42
    0.105,                    !- Field 43
    Until: 20:00,             !- Field 44
    0.126,                    !- Field 45
    Until: 21:00,             !- Field 46
    0.128,                    !- Field 47
    Until: 22:00,             !- Field 48
    0.088,                    !- Field 49
    Until: 23:00,             !- Field 50
    0.049,                    !- Field 51
    Until: 24:00,             !- Field 52
    0.02;                     !- Field 53

SCHEDULE:COMPACT,
    CombinedDHWSchedule,      !- Name
    Fraction,                 !- Schedule Type Limits Name
    Through: 12/31,           !- Field 1
    For: SummerDesignDay WinterDesignDay,    !- Field 2
    Until: 24:00,             !- Field 3
    0,                        !- Field 4
    For: AllOtherDays,        !- Field 5
    Until: 1:00,              !- Field 6
    0.006,                    !- Field 7
    Until: 2:00,              !- Field 8
    0.003,                    !- Field 9
    Until: 3:00,              !- Field 10
    0.001,                    !- Field 11
    Until: 4:00,              !- Field 12
    0.001,                    !- Field 13
    Until: 5:00,              !- Field 14
    0.003,                    !- Field 15
    Until: 6:00,              !- Field 16
    0.022,                    !- Field 17
    Until: 7:00,              !- Field 18
    0.075,                    !- Field 19
    Until: 8:00,              !- Field 20
    0.079,                    !- Field 21
    Until: 9:00,              !- Field 22
    0.076,                    !- Field 23
    Until: 10:00,             !- Field 24
    0.067,                    !- Field 25
    Until: 11:00,             !- Field 26
    0.061,                    !- Field 27
    Until: 12:00,             !- Field 28
    0.048,                    !- Field 29
    Until: 13:00,             !- Field 30
    0.042,                    !- Field 31
    Until: 14:00,             !- Field 32
    0.037,                    !- Field 33
    Until: 15:00,             !- Field 34
    0.037,                    !- Field 35
    Until: 16:00,             !- Field 36
    0.033,                    !- Field 37
    Until: 17:00,             !- Field 38
    0.044,                    !- Field 39
    Until: 18:00,             !- Field 40
    0.058,                    !- Field 41
    Until: 19:00,             !- Field 42
    0.069,                    !- Field 43
    Until: 20:00,             !- Field 44
    0.065,                    !- Field 45
    Until: 21:00,             !- Field 46
    0.059,                    !- Field 47
    Until: 22:00,             !- Field 48
    0.048,                    !- Field 49
    Until: 23:00,             !- Field 50
    0.042,                    !- Field 51
    Until: 24:00,             !- Field 52
    0.023;                    !- Field 53

SCHEDULE:COMPACT,
    BARangeSchedule,          !- Name
    Fraction,                 !- Schedule Type Limits Name
    Through: 12/31,           !- Field 1
    For: SummerDesignDay WinterDesignDay,    !- Field 2
    Until: 24:00,             !- Field 3
    0,                        !- Field 4
    For: AllOtherDays,        !- Field 5
    Until: 1:00,              !- Field 6
    0.007,                    !- Field 7
    Until: 2:00,              !- Field 8
    0.007,                    !- Field 9
    Until: 3:00,              !- Field 10
    0.004,                    !- Field 11
    Until: 4:00,              !- Field 12
    0.004,                    !- Field 13
    Until: 5:00,              !- Field 14
    0.007,                    !- Field 15
    Until: 6:00,              !- Field 16
    0.011,                    !- Field 17
    Until: 7:00,              !- Field 18
    0.025,                    !- Field 19
    Until: 8:00,              !- Field 20
    0.042,                    !- Field 21
    Until: 9:00,              !- Field 22
    0.046,                    !- Field 23
    Until: 10:00,             !- Field 24
    0.048,                    !- Field 25
    Until: 11:00,             !- Field 26
    0.042,                    !- Field 27
    Until: 12:00,             !- Field 28
    0.05,                     !- Field 29
    Until: 13:00,             !- Field 30
    0.057,                    !- Field 31
    Until: 14:00,             !- Field 32
    0.046,                    !- Field 33
    Until: 15:00,             !- Field 34
    0.057,                    !- Field 35
    Until: 16:00,             !- Field 36
    0.044,                    !- Field 37
    Until: 17:00,             !- Field 38
    0.092,                    !- Field 39
    Until: 18:00,             !- Field 40
    0.15,                     !- Field 41
    Until: 19:00,             !- Field 42
    0.117,                    !- Field 43
    Until: 20:00,             !- Field 44
    0.06,                     !- Field 45
    Until: 21:00,             !- Field 46
    0.035,                    !- Field 47
    Until: 22:00,             !- Field 48
    0.025,                    !- Field 49
    Until: 23:00,             !- Field 50
    0.016,                    !- Field 51
    Until: 24:00,             !- Field 52
    0.011;                    !- Field 53

SCHEDULE:COMPACT,
    BAClothesDryerSchedule,    !- Name
    Fraction,                 !- Schedule Type Limits Name
    Through: 12/31,           !- Field 1
    For: SummerDesignDay WinterDesignDay,    !- Field 2
    Until: 24:00,             !- Field 3
    0,                        !- Field 4
    For: AllOtherDays,        !- Field 5
    Until: 1:00,              !- Field 6
    0.01,                     !- Field 7
    Until: 2:00,              !- Field 8
    0.006,                    !- Field 9
    Until: 3:00,              !- Field 10
    0.004,                    !- Field 11
    Until: 4:00,              !- Field 12
    0.002,                    !- Field 13
    Until: 5:00,              !- Field 14
    0.004,                    !- Field 15
    Until: 6:00,              !- Field 16
    0.006,                    !- Field 17
    Until: 7:00,              !- Field 18
    0.016,                    !- Field 19
    Until: 8:00,              !- Field 20
    0.032,                    !- Field 21
    Until: 9:00,              !- Field 22
    0.048,                    !- Field 23
    Until: 10:00,             !- Field 24
    0.068,                    !- Field 25
    Until: 11:00,             !- Field 26
    0.078,                    !- Field 27
    Until: 12:00,             !- Field 28
    0.081,                    !- Field 29
    Until: 13:00,             !- Field 30
    0.074,                    !- Field 31
    Until: 14:00,             !- Field 32
    0.067,                    !- Field 33
    Until: 15:00,             !- Field 34
    0.057,                    !- Field 35
    Until: 16:00,             !- Field 36
    0.061,                    !- Field 37
    Until: 17:00,             !- Field 38
    0.055,                    !- Field 39
    Until: 18:00,             !- Field 40
    0.054,                    !- Field 41
    Until: 19:00,             !- Field 42
    0.051,                    !- Field 43
    Until: 20:00,             !- Field 44
    0.051,                    !- Field 45
    Until: 21:00,             !- Field 46
    0.052,                    !- Field 47
    Until: 22:00,             !- Field 48
    0.054,                    !- Field 49
    Until: 23:00,             !- Field 50
    0.044,                    !- Field 51
    Until: 24:00,             !- Field 52
    0.024;                    !- Field 53

SCHEDULE:COMPACT,
    BAClothesWasherSchedule,    !- Name
    Fraction,                 !- Schedule Type Limits Name
    Through: 12/31,           !- Field 1
    For: SummerDesignDay WinterDesignDay,    !- Field 2
    Until: 24:00,             !- Field 3
    0,                        !- Field 4
    For: AllOtherDays,        !- Field 5
    Until: 1:00,              !- Field 6
    0.009,                    !- Field 7
    Until: 2:00,              !- Field 8
    0.007,                    !- Field 9
    Until: 3:00,              !- Field 10
    0.004,                    !- Field 11
    Until: 4:00,              !- Field 12
    0.004,                    !- Field 13
    Until: 5:00,              !- Field 14
    0.007,                    !- Field 15
    Until: 6:00,              !- Field 16
    0.011,                    !- Field 17
    Until: 7:00,              !- Field 18
    0.022,                    !- Field 19
    Until: 8:00,              !- Field 20
    0.049,                    !- Field 21
    Until: 9:00,              !- Field 22
    0.073,                    !- Field 23
    Until: 10:00,             !- Field 24
    0.086,                    !- Field 25
    Until: 11:00,             !- Field 26
    0.084,                    !- Field 27
    Until: 12:00,             !- Field 28
    0.075,                    !- Field 29
    Until: 13:00,             !- Field 30
    0.067,                    !- Field 31
    Until: 14:00,             !- Field 32
    0.06,                     !- Field 33
    Until: 15:00,             !- Field 34
    0.049,                    !- Field 35
    Until: 16:00,             !- Field 36
    0.052,                    !- Field 37
    Until: 17:00,             !- Field 38
    0.05,                     !- Field 39
    Until: 18:00,             !- Field 40
    0.049,                    !- Field 41
    Until: 19:00,             !- Field 42
    0.049,                    !- Field 43
    Until: 20:00,             !- Field 44
    0.049,                    !- Field 45
    Until: 21:00,             !- Field 46
    0.049,                    !- Field 47
    Until: 22:00,             !- Field 48
    0.047,                    !- Field 49
    Until: 23:00,             !- Field 50
    0.032,                    !- Field 51
    Until: 24:00,             !- Field 52
    0.017;                    !- Field 53

SCHEDULE:COMPACT,
    BADishwasherSchedule,     !- Name
    Fraction,                 !- Schedule Type Limits Name
    Through: 12/31,           !- Field 1
    For: SummerDesignDay WinterDesignDay,    !- Field 2
    Until: 24:00,             !- Field 3
    0,                        !- Field 4
    For: AllOtherDays,        !- Field 5
    Until: 1:00,              !- Field 6
    0.015,                    !- Field 7
    Until: 2:00,              !- Field 8
    0.007,                    !- Field 9
    Until: 3:00,              !- Field 10
    0.005,                    !- Field 11
    Until: 4:00,              !- Field 12
    0.003,                    !- Field 13
    Until: 5:00,              !- Field 14
    0.003,                    !- Field 15
    Until: 6:00,              !- Field 16
    0.01,                     !- Field 17
    Until: 7:00,              !- Field 18
    0.02,                     !- Field 19
    Until: 8:00,              !- Field 20
    0.031,                    !- Field 21
    Until: 9:00,              !- Field 22
    0.058,                    !- Field 23
    Until: 10:00,             !- Field 24
    0.065,                    !- Field 25
    Until: 11:00,             !- Field 26
    0.056,                    !- Field 27
    Until: 12:00,             !- Field 28
    0.048,                    !- Field 29
    Until: 13:00,             !- Field 30
    0.041,                    !- Field 31
    Until: 14:00,             !- Field 32
    0.046,                    !- Field 33
    Until: 15:00,             !- Field 34
    0.036,                    !- Field 35
    Until: 16:00,             !- Field 36
    0.038,                    !- Field 37
    Until: 17:00,             !- Field 38
    0.038,                    !- Field 39
    Until: 18:00,             !- Field 40
    0.049,                    !- Field 41
    Until: 19:00,             !- Field 42
    0.087,                    !- Field 43
    Until: 20:00,             !- Field 44
    0.111,                    !- Field 45
    Until: 21:00,             !- Field 46
    0.09,                     !- Field 47
    Until: 22:00,             !- Field 48
    0.067,                    !- Field 49
    Until: 23:00,             !- Field 50
    0.044,                    !- Field 51
    Until: 24:00,             !- Field 52
    0.031;                    !- Field 53

SCHEDULE:COMPACT,
    OccupantSchedule,         !- Name
    Fraction,                 !- Schedule Type Limits Name
    Through: 12/31,           !- Field 1
    For: SummerDesignDay WinterDesignDay,    !- Field 2
    Until: 24:00,             !- Field 3
    0,                        !- Field 4
    For: AllOtherDays,        !- Field 5
    Until: 1:00,              !- Field 6
    1,                        !- Field 7
    Until: 2:00,              !- Field 8
    1,                        !- Field 9
    Until: 3:00,              !- Field 10
    1,                        !- Field 11
    Until: 4:00,              !- Field 12
    1,                        !- Field 13
    Until: 5:00,              !- Field 14
    1,                        !- Field 15
    Until: 6:00,              !- Field 16
    1,                        !- Field 17
    Until: 7:00,              !- Field 18
    1,                        !- Field 19
    Until: 8:00,              !- Field 20
    1,                        !- Field 21
    Until: 9:00,              !- Field 22
    0.9,                      !- Field 23
    Until: 10:00,             !- Field 24
    0.4,                      !- Field 25
    Until: 11:00,             !- Field 26
    0.25,                     !- Field 27
    Until: 12:00,             !- Field 28
    0.25,                     !- Field 29
    Until: 13:00,             !- Field 30
    0.25,                     !- Field 31
    Until: 14:00,             !- Field 32
    0.25,                     !- Field 33
    Until: 15:00,             !- Field 34
    0.25,                     !- Field 35
    Until: 16:00,             !- Field 36
    0.25,                     !- Field 37
    Until: 17:00,             !- Field 38
    0.25,                     !- Field 39
    Until: 18:00,             !- Field 40
    0.55,                     !- Field 41
    Until: 19:00,             !- Field 42
    0.9,                      !- Field 43
    Until: 20:00,             !- Field 44
    0.9,                      !- Field 45
    Until: 21:00,             !- Field 46
    0.9,                      !- Field 47
    Until: 22:00,             !- Field 48
    1,                        !- Field 49
    Until: 23:00,             !- Field 50
    1,                        !- Field 51
    Until: 24:00,             !- Field 52
    1;                        !- Field 53

SCHEDULE:COMPACT,
    Occupant_Activity_Schedule,    !- Name
    Any Number,               !- Schedule Type Limits Name
    Through: 12/31,           !- Field 1
    For: AllDays,             !- Field 2
    Until: 24:00,             !- Field 3
    120;                      !- Field 4

SCHEDULE:COMPACT,
    Occupant_Eff_Schedule,    !- Name
    Any Number,               !- Schedule Type Limits Name
    Through: 12/31,           !- Field 1
    For: AllDays,             !- Field 2
    Until: 24:00,             !- Field 3
    0;                        !- Field 4

SCHEDULE:COMPACT,
    Occupant_Clothing_Schedule,    !- Name
    Any Number,               !- Schedule Type Limits Name
    Through: 04/30,           !- Field 1
    For: AllDays,             !- Field 2
    Until: 24:00,             !- Field 3
    1,                        !- Field 4
    Through: 09/30,           !- Field 5
    For: AllDays,             !- Field 6
    Until: 24:00,             !- Field 7
    0.3,                      !- Field 8
    Through: 12/31,           !- Field 9
    For: AllDays,             !- Field 10
    Until: 24:00,             !- Field 11
    1;                        !- Field 12

SCHEDULE:COMPACT,
    CO2_Schedule,             !- Name
    Fraction,                 !- Schedule Type Limits Name
    Through: 12/31,           !- Field 1
    For: AllDays,             !- Field 2
    Until: 24:00,             !- Field 3
    500;                      !- Field 4

SCHEDULE:COMPACT,