!-Generator IDFEditor 1.51
!-Option SortedOrder ViewInIPunits

!-NOTE: All comments with '!-' are ignored by the IDFEditor and are generated automatically.
!-      Use '!' comments if they need to be retained when using the IDFEditor.


!-   ===========  ALL OBJECTS IN CLASS: VERSION ===========

Version,
    9.5;                     !- Version Identifier


!-   ===========  ALL OBJECTS IN CLASS: SIMULATIONCONTROL ===========

SimulationControl,
    Yes,                     !- Do Zone Sizing Calculation
    Yes,                     !- Do System Sizing Calculation
    No,                      !- Do Plant Sizing Calculation
    Yes,                     !- Run Simulation for Sizing Periods
    Yes,                     !- Run Simulation for Weather File Run Periods
    Yes,                     !- Do HVAC Sizing Simulation for Sizing Periods
    25;                      !- Maximum Number of HVAC Sizing Simulation Passes


!-   ===========  ALL OBJECTS IN CLASS: BUILDING ===========

Building,
    final_ChicagoMDW_Package_4_Phius Retrofit_Elec,  !- Name
    0,                       !- North Axis {deg}
    City,                    !- Terrain
    0.04,                    !- Loads Convergence Tolerance Value {W}
    0.4,                     !- Temperature Convergence Tolerance Value {deltaC}
    FullInteriorAndExterior, !- Solar Distribution
    25,                      !- Maximum Number of Warmup Days
    6;                       !- Minimum Number of Warmup Days


!-   ===========  ALL OBJECTS IN CLASS: ZONEAIRCONTAMINANTBALANCE ===========

ZoneAirContaminantBalance,
    Yes,                     !- Carbon Dioxide Concentration
    CO2_Schedule,            !- Outdoor Carbon Dioxide Schedule Name
    No;                      !- Generic Contaminant Concentration


!-   ===========  ALL OBJECTS IN CLASS: TIMESTEP ===========

Timestep,
    4;                       !- Number of Timesteps per Hour


!-   ===========  ALL OBJECTS IN CLASS: SITE:LOCATION ===========

Site:Location,
    F40E7A,                  !- Name
    0.0,                     !- Latitude {deg}
    0.0,                     !- Longitude {deg}
    0.0,                     !- Time Zone {hr}
    0.0;                     !- Elevation {m}


!-   ===========  ALL OBJECTS IN CLASS: SIZINGPERIOD:DESIGNDAY ===========

SizingPeriod:DesignDay,
    Chicago Midway Ap Ann Htg 99.6% Condns DB,  !- Name
    1,                       !- Month
    21,                      !- Day of Month
    WinterDesignDay,         !- Day Type
    -18.7,                   !- Maximum Dry-Bulb Temperature {C}
    0,                       !- Daily Dry-Bulb Temperature Range {deltaC}
    DefaultMultipliers,      !- Dry-Bulb Temperature Range Modifier Type
    ,                        !- Dry-Bulb Temperature Range Modifier Day Schedule Name
    Wetbulb,                 !- Humidity Condition Type
    -18.7,                   !- Wetbulb or DewPoint at Maximum Dry-Bulb {C}
    ,                        !- Humidity Condition Day Schedule Name
    ,                        !- Humidity Ratio at Maximum Dry-Bulb {kgWater/kgDryAir}
    ,                        !- Enthalpy at Maximum Dry-Bulb {J/kg}
    ,                        !- Daily Wet-Bulb Temperature Range {deltaC}
    99110,                   !- Barometric Pressure {Pa}
    5.3,                     !- Wind Speed {m/s}
    300,                     !- Wind Direction {deg}
    No,                      !- Rain Indicator
    No,                      !- Snow Indicator
    No,                      !- Daylight Saving Time Indicator
    ASHRAEClearSky,          !- Solar Model Indicator
    ,                        !- Beam Solar Day Schedule Name
    ,                        !- Diffuse Solar Day Schedule Name
    ,                        !- ASHRAE Clear Sky Optical Depth for Beam Irradiance (taub) {dimensionless}
    ,                        !- ASHRAE Clear Sky Optical Depth for Diffuse Irradiance (taud) {dimensionless}
    0;                       !- Sky Clearness

SizingPeriod:DesignDay,
    Chicago Midway Ap Ann Htg 99% Condns DB,  !- Name
    1,                       !- Month
    21,                      !- Day of Month
    WinterDesignDay,         !- Day Type
    -15.4,                   !- Maximum Dry-Bulb Temperature {C}
    0,                       !- Daily Dry-Bulb Temperature Range {deltaC}
    DefaultMultipliers,      !- Dry-Bulb Temperature Range Modifier Type
    ,                        !- Dry-Bulb Temperature Range Modifier Day Schedule Name
    Wetbulb,                 !- Humidity Condition Type
    -15.4,                   !- Wetbulb or DewPoint at Maximum Dry-Bulb {C}
    ,                        !- Humidity Condition Day Schedule Name
    ,                        !- Humidity Ratio at Maximum Dry-Bulb {kgWater/kgDryAir}
    ,                        !- Enthalpy at Maximum Dry-Bulb {J/kg}
    ,                        !- Daily Wet-Bulb Temperature Range {deltaC}
    99110,                   !- Barometric Pressure {Pa}
    5.3,                     !- Wind Speed {m/s}
    300,                     !- Wind Direction {deg}
    No,                      !- Rain Indicator
    No,                      !- Snow Indicator
    No,                      !- Daylight Saving Time Indicator
    ASHRAEClearSky,          !- Solar Model Indicator
    ,                        !- Beam Solar Day Schedule Name
    ,                        !- Diffuse Solar Day Schedule Name
    ,                        !- ASHRAE Clear Sky Optical Depth for Beam Irradiance (taub) {dimensionless}
    ,                        !- ASHRAE Clear Sky Optical Depth for Diffuse Irradiance (taud) {dimensionless}
    0;                       !- Sky Clearness

SizingPeriod:DesignDay,
    Chicago Midway Ap Ann Clg .4% Condns DB=>MWB,  !- Name
    7,                       !- Month
    21,                      !- Day of Month
    SummerDesignDay,         !- Day Type
    33.4,                    !- Maximum Dry-Bulb Temperature {C}
    8.8,                     !- Daily Dry-Bulb Temperature Range {deltaC}
    DefaultMultipliers,      !- Dry-Bulb Temperature Range Modifier Type
    ,                        !- Dry-Bulb Temperature Range Modifier Day Schedule Name
    Wetbulb,                 !- Humidity Condition Type
    23.8,                    !- Wetbulb or DewPoint at Maximum Dry-Bulb {C}
    ,                        !- Humidity Condition Day Schedule Name
    ,                        !- Humidity Ratio at Maximum Dry-Bulb {kgWater/kgDryAir}
    ,                        !- Enthalpy at Maximum Dry-Bulb {J/kg}
    ,                        !- Daily Wet-Bulb Temperature Range {deltaC}
    99110,                   !- Barometric Pressure {Pa}
    5.6,                     !- Wind Speed {m/s}
    220,                     !- Wind Direction {deg}
    No,                      !- Rain Indicator
    No,                      !- Snow Indicator
    No,                      !- Daylight Saving Time Indicator
    ASHRAETau,               !- Solar Model Indicator
    ,                        !- Beam Solar Day Schedule Name
    ,                        !- Diffuse Solar Day Schedule Name
    0.457,                   !- ASHRAE Clear Sky Optical Depth for Beam Irradiance (taub) {dimensionless}
    2.043;                   !- ASHRAE Clear Sky Optical Depth for Diffuse Irradiance (taud) {dimensionless}

SizingPeriod:DesignDay,
    Chicago Midway Ap Ann Clg 1% Condns DB=>MWB,  !- Name
    7,                       !- Month
    21,                      !- Day of Month
    SummerDesignDay,         !- Day Type
    32,                      !- Maximum Dry-Bulb Temperature {C}
    8.8,                     !- Daily Dry-Bulb Temperature Range {deltaC}
    DefaultMultipliers,      !- Dry-Bulb Temperature Range Modifier Type
    ,                        !- Dry-Bulb Temperature Range Modifier Day Schedule Name
    Wetbulb,                 !- Humidity Condition Type
    23,                      !- Wetbulb or DewPoint at Maximum Dry-Bulb {C}
    ,                        !- Humidity Condition Day Schedule Name
    ,                        !- Humidity Ratio at Maximum Dry-Bulb {kgWater/kgDryAir}
    ,                        !- Enthalpy at Maximum Dry-Bulb {J/kg}
    ,                        !- Daily Wet-Bulb Temperature Range {deltaC}
    99110,                   !- Barometric Pressure {Pa}
    5.6,                     !- Wind Speed {m/s}
    220,                     !- Wind Direction {deg}
    No,                      !- Rain Indicator
    No,                      !- Snow Indicator
    No,                      !- Daylight Saving Time Indicator
    ASHRAETau,               !- Solar Model Indicator
    ,                        !- Beam Solar Day Schedule Name
    ,                        !- Diffuse Solar Day Schedule Name
    0.457,                   !- ASHRAE Clear Sky Optical Depth for Beam Irradiance (taub) {dimensionless}
    2.043;                   !- ASHRAE Clear Sky Optical Depth for Diffuse Irradiance (taud) {dimensionless}


!-   ===========  ALL OBJECTS IN CLASS: RUNPERIOD ===========

RunPeriod,
    Annual,                  !- Name
    1,                       !- Begin Month
    1,                       !- Begin Day of Month
    ,                        !- Begin Year
    12,                      !- End Month
    31,                      !- End Day of Month
    ,                        !- End Year
    ,                        !- Day of Week for Start Day
    Yes,                     !- Use Weather File Holidays and Special Days
    Yes,                     !- Use Weather File Daylight Saving Period
    No,                      !- Apply Weekend Holiday Rule
    Yes,                     !- Use Weather File Rain Indicators
    Yes,                     !- Use Weather File Snow Indicators
    No;                      !- Treat Weather as Actual


!-   ===========  ALL OBJECTS IN CLASS: SCHEDULETYPELIMITS ===========

ScheduleTypeLimits,
    Number,                  !- Name
    ,                        !- Lower Limit Value
    ,                        !- Upper Limit Value
    ,                        !- Numeric Type
    Dimensionless;           !- Unit Type

ScheduleTypeLimits,
    Any Number,              !- Name
    ,                        !- Lower Limit Value
    ,                        !- Upper Limit Value
    ,                        !- Numeric Type
    Dimensionless;           !- Unit Type

ScheduleTypeLimits,
    Fraction,                !- Name
    ,                        !- Lower Limit Value
    ,                        !- Upper Limit Value
    ,                        !- Numeric Type
    Dimensionless;           !- Unit Type

ScheduleTypeLimits,
    On/Off,                  !- Name
    ,                        !- Lower Limit Value
    ,                        !- Upper Limit Value
    ,                        !- Numeric Type
    Dimensionless;           !- Unit Type


!-   ===========  ALL OBJECTS IN CLASS: SCHEDULE:COMPACT ===========

Schedule:Compact,
    Occupant_Activity_Schedule,  !- Name
    Any Number,              !- Schedule Type Limits Name
    Through: 12/31,          !- Field 1
    For: AllDays,            !- Field 2
    Until: 24:00,            !- Field 3
    120;                     !- Field 4

Schedule:Compact,
    Occupant_Eff_Schedule,   !- Name
    Any Number,              !- Schedule Type Limits Name
    Through: 12/31,          !- Field 1
    For: AllDays,            !- Field 2
    Until: 24:00,            !- Field 3
    0;                       !- Field 4

Schedule:Compact,
    Occupant_Clothing_Schedule,  !- Name
    Any Number,              !- Schedule Type Limits Name
    Through: 04/30,          !- Field 1
    For: AllDays,            !- Field 2
    Until: 24:00,            !- Field 3
    1,                       !- Field 4
    Through: 09/30,          !- Field 5
    For: AllDays,            !- Field 6
    Until: 24:00,            !- Field 7
    0.3,                     !- Field 8
    Through: 12/31,          !- Field 9
    For: AllDays,            !- Field 10
    Until: 24:00,            !- Field 11
    1;                       !- Field 12

Schedule:Compact,
    CO2_Schedule,            !- Name
    Fraction,                !- Schedule Type Limits Name
    Through: 12/31,          !- Field 1
    For: AllDays,            !- Field 2
    Until: 24:00,            !- Field 3
    500;                     !- Field 4

Schedule:Compact,
    OccupantSchedule,        !- Name
    Fraction,                !- Schedule Type Limits Name
    Through: 12/31,          !- Field 1
    For: AllDays,            !- Field 2
    Until: 24:00,            !- Field 3
    1;                       !- Field 4

Schedule:Compact,
    MechAvailable,           !- Name
    Fraction,                !- Schedule Type Limits Name
    Through: 01/26,          !- Field 1
    For: AllDays,            !- Field 2
    Until: 24:00,            !- Field 3
    1,                       !- Field 4
    Through: 02/02,          !- Field 5
    For: AllDays,            !- Field 6
    Until: 24:00,            !- Field 7
    0,                       !- Field 8
    Through: 07/19,          !- Field 9
    For: AllDays,            !- Field 10
    Until: 24:00,            !- Field 11
    1,                       !- Field 12
    Through: 07/26,          !- Field 13
    For: AllDays,            !- Field 14
    Until: 24:00,            !- Field 15
    0,                       !- Field 16
    Through: 12/31,          !- Field 17
    For: AllDays,            !- Field 18
    Until: 24:00,            !- Field 19
    1;                       !- Field 20

Schedule:Compact,
    NatVent,                 !- Name
    On/Off,                  !- Schedule Type Limits Name
    Through: 07/19,          !- Field 1
    For: SummerDesignDay,    !- Field 2
    Until: 24:00,            !- Field 3
    0,                       !- Field 4
    For: AllOtherDays,       !- Field 5
    Until: 24:00,            !- Field 6
    0,                       !- Field 7
    Through: 07/26,          !- Field 8
    For: SummerDesignDay,    !- Field 9
    Until: 24:00,            !- Field 10
    0,                       !- Field 11
    For: AllOtherDays,       !- Field 12
    Until: 24:00,            !- Field 13
    1,                       !- Field 14
    Through: 12/31,          !- Field 15
    For: AllDays,            !- Field 16
    Until: 24:00,            !- Field 17
    0;                       !- Field 18

Schedule:Compact,
    SchNatVent,              !- Name
    On/Off,                  !- Schedule Type Limits Name
    Through: 07/19,          !- Field 1
    For: SummerDesignDay,    !- Field 2
    Until: 24:00,            !- Field 3
    0,                       !- Field 4
    For: AllOtherDays,       !- Field 5
    Until: 24:00,            !- Field 6
    0,                       !- Field 7
    Through: 07/26,          !- Field 8
    For: SummerDesignDay,    !- Field 9
    Until: 24:00,            !- Field 10
    0,                       !- Field 11
    For: AllOtherDays,       !- Field 12
    Until: 24:00,            !- Field 13
    1,                       !- Field 14
    Through: 12/31,          !- Field 15
    For: AllDays,            !- Field 16
    Until: 24:00,            !- Field 17
    0;                       !- Field 18

Schedule:Compact,
    OutageCooling,           !- Name
    On/Off,                  !- Schedule Type Limits Name
    Through: 07/19,          !- Field 1
    For: AllDays,            !- Field 2
    Until: 24:00,            !- Field 3
    1,                       !- Field 4
    Through: 07/26,          !- Field 5
    For: AllDays,            !- Field 6
    Until: 24:00,            !- Field 7
    0,                       !- Field 8
    Through: 12/31,          !- Field 9
    For: AllDays,            !- Field 10
    Until: 24:00,            !- Field 11
    1;                       !- Field 12

Schedule:Compact,
    Demand Control Cooling,  !- Name
    On/Off,                  !- Schedule Type Limits Name
    Through: 07/19,          !- Field 1
    For: AllDays,            !- Field 2
    Until: 24:00,            !- Field 3
    0,                       !- Field 4
    Through: 07/26,          !- Field 5
    For: AllDays,            !- Field 6
    Until: 24:00,            !- Field 7
    0,                       !- Field 8
    Through: 12/31,          !- Field 9
    For: AllDays,            !- Field 10
    Until: 24:00,            !- Field 11
    0;                       !- Field 12

Schedule:Compact,
    ShadingAvailable,        !- Name
    On/Off,                  !- Schedule Type Limits Name
    Through: 07/19,          !- Field 1
    For: AllDays,            !- Field 2
    Until: 24:00,            !- Field 3
    0,                       !- Field 4
    Through: 07/26,          !- Field 5
    For: AllDays,            !- Field 6
    Until: 24:00,            !- Field 7
    1,                       !- Field 8
    Through: 12/31,          !- Field 9
    For: AllDays,            !- Field 10
    Until: 24:00,            !- Field 11
    0;                       !- Field 12

Schedule:Compact,
    SizingLoads,             !- Name
    On/Off,                  !- Schedule Type Limits Name
    Through: 12/31,          !- Field 1
    For: SummerDesignDay,    !- Field 2
    Until: 24:00,            !- Field 3
    1,                       !- Field 4
    For: AllOtherDays,       !- Field 5
    Until: 24:00,            !- Field 6
    0;                       !- Field 7

Schedule:Compact,
    BARangeSchedule,         !- Name
    Fraction,                !- Schedule Type Limits Name
    Through: 12/31,          !- Field 1
    For: SummerDesignDay,    !- Field 2
    Until: 24:00,            !- Field 3
    0,                       !- Field 4
    For: AllOtherDays,       !- Field 5
    Until: 24:00,            !- Field 6
    0;                       !- Field 7

Schedule:Compact,
    Phius_Lighting,          !- Name
    Fraction,                !- Schedule Type Limits Name
    Through: 12/31,          !- Field 1
    For: SummerDesignDay,    !- Field 2
    Until: 24:00,            !- Field 3
    0,                       !- Field 4
    For: AllOtherDays,       !- Field 5
    Until: 24:00,            !- Field 6
    0;                       !- Field 7

Schedule:Compact,
    Phius_MELs,              !- Name
    Fraction,                !- Schedule Type Limits Name
    Through: 12/31,          !- Field 1
    For: SummerDesignDay,    !- Field 2
    Until: 24:00,            !- Field 3
    0,                       !- Field 4
    For: AllOtherDays,       !- Field 5
    Until: 24:00,            !- Field 6
    0;                       !- Field 7

Schedule:Compact,
    CombinedDHWSchedule,     !- Name
    Fraction,                !- Schedule Type Limits Name
    Through: 12/31,          !- Field 1
    For: SummerDesignDay,    !- Field 2
    Until: 24:00,            !- Field 3
    0,                       !- Field 4
    For: AllOtherDays,       !- Field 5
    Until: 24:00,            !- Field 6
    0;                       !- Field 7

Schedule:Compact,
    BAClothesDryerSchedule,  !- Name
    Fraction,                !- Schedule Type Limits Name
    Through: 12/31,          !- Field 1
    For: SummerDesignDay,    !- Field 2
    Until: 24:00,            !- Field 3
    0,                       !- Field 4
    For: AllOtherDays,       !- Field 5
    Until: 24:00,            !- Field 6
    0;                       !- Field 7

Schedule:Compact,
    BAClothesWasherSchedule, !- Name
    Fraction,                !- Schedule Type Limits Name
    Through: 12/31,          !- Field 1
    For: SummerDesignDay,    !- Field 2
    Until: 24:00,            !- Field 3
    0,                       !- Field 4
    For: AllOtherDays,       !- Field 5
    Until: 24:00,            !- Field 6
    0;                       !- Field 7

Schedule:Compact,
    BADishwasherSchedule,    !- Name
    Fraction,                !- Schedule Type Limits Name
    Through: 12/31,          !- Field 1
    For: SummerDesignDay,    !- Field 2
    Until: 24:00,            !- Field 3
    0,                       !- Field 4
    For: AllOtherDays,       !- Field 5
    Until: 24:00,            !- Field 6
    0;                       !- Field 7


!-   ===========  ALL OBJECTS IN CLASS: SCHEDULE:CONSTANT ===========

Schedule:Constant,
    WindowFraction2,         !- Name
    Any Number,              !- Schedule Type Limits Name
    0;                       !- Hourly Value

Schedule:Constant,
    HVAC_ALWAYS_4,           !- Name
    Any Number,              !- Schedule Type Limits Name
    4;                       !- Hourly Value

Schedule:Constant,
    Phius_68F,               !- Name
    Any Number,              !- Schedule Type Limits Name
    20;                      !- Hourly Value

Schedule:Constant,
    DHW_122F,                !- Name
    Any Number,              !- Schedule Type Limits Name
    2;                       !- Hourly Value

Schedule:Constant,
    Phius_77F,               !- Name
    Any Number,              !- Schedule Type Limits Name
    25;                      !- Hourly Value

Schedule:Constant,
    HUMIDITY_SETPOINT,       !- Name
    Any Number,              !- Schedule Type Limits Name
    60;                      !- Hourly Value

Schedule:Constant,
    AirVelocitySch,          !- Name
    Any Number,              !- Schedule Type Limits Name
    0.16;                    !- Hourly Value

Schedule:Constant,
    Always_On,               !- Name
    Any Number,              !- Schedule Type Limits Name
    1;                       !- Hourly Value

Schedule:Constant,
    Always Off,              !- Name
    Any Number,              !- Schedule Type Limits Name
    0;                       !- Hourly Value

Schedule:Constant,
    ERVAvailable,            !- Name
    Any Number,              !- Schedule Type Limits Name
    1;                       !- Hourly Value


!-   ===========  ALL OBJECTS IN CLASS: MATERIAL ===========

Material,
    M01 100mm brick,         !- Name
    MediumRough,             !- Roughness
    0.1016,                  !- Thickness {m}
    0.89,                    !- Conductivity {W/m-K}
    1920,                    !- Density {kg/m3}
    790,                     !- Specific Heat {J/kg-K}
    0.9,                     !- Thermal Absorptance
    0.7,                     !- Solar Absorptance
    0.7;                     !- Visible Absorptance

Material,
    G05 25mm wood,           !- Name
    MediumSmooth,            !- Roughness
    0.0254,                  !- Thickness {m}
    0.15,                    !- Conductivity {W/m-K}
    608,                     !- Density {kg/m3}
    1630,                    !- Specific Heat {J/kg-K}
    0.9,                     !- Thermal Absorptance
    0.7,                     !- Solar Absorptance
    0.7;                     !- Visible Absorptance

Material,
    F08 Metal surface,       !- Name
    Smooth,                  !- Roughness
    0.0008,                  !- Thickness {m}
    45.28,                   !- Conductivity {W/m-K}
    7824,                    !- Density {kg/m3}
    500,                     !- Specific Heat {J/kg-K}
    0.9,                     !- Thermal Absorptance
    0.7,                     !- Solar Absorptance
    0.7;                     !- Visible Absorptance

Material,
    I01 25mm insulation board,  !- Name
    MediumRough,             !- Roughness
    0.0254,                  !- Thickness {m}
    0.03,                    !- Conductivity {W/m-K}
    43,                      !- Density {kg/m3}
    1210,                    !- Specific Heat {J/kg-K}
    0.9,                     !- Thermal Absorptance
    0.7,                     !- Solar Absorptance
    0.7;                     !- Visible Absorptance

Material,
    I02 50mm insulation board,  !- Name
    MediumRough,             !- Roughness
    0.0508,                  !- Thickness {m}
    0.03,                    !- Conductivity {W/m-K}
    43,                      !- Density {kg/m3}
    1210,                    !- Specific Heat {J/kg-K}
    0.9,                     !- Thermal Absorptance
    0.7,                     !- Solar Absorptance
    0.7;                     !- Visible Absorptance

Material,
    G01a 19mm gypsum board,  !- Name
    MediumSmooth,            !- Roughness
    0.019,                   !- Thickness {m}
    0.16,                    !- Conductivity {W/m-K}
    800,                     !- Density {kg/m3}
    1090,                    !- Specific Heat {J/kg-K}
    0.9,                     !- Thermal Absorptance
    0.7,                     !- Solar Absorptance
    0.7;                     !- Visible Absorptance

Material,
    M11 100mm lightweight concrete,  !- Name
    MediumRough,             !- Roughness
    0.1016,                  !- Thickness {m}
    0.53,                    !- Conductivity {W/m-K}
    1280,                    !- Density {kg/m3}
    840,                     !- Specific Heat {J/kg-K}
    0.9,                     !- Thermal Absorptance
    0.7,                     !- Solar Absorptance
    0.7;                     !- Visible Absorptance

Material,
    F16 Acoustic tile,       !- Name
    MediumSmooth,            !- Roughness
    0.0191,                  !- Thickness {m}
    0.06,                    !- Conductivity {W/m-K}
    368,                     !- Density {kg/m3}
    590,                     !- Specific Heat {J/kg-K}
    0.9,                     !- Thermal Absorptance
    0.7,                     !- Solar Absorptance
    0.7;                     !- Visible Absorptance

Material,
    M15 200mm heavyweight concrete,  !- Name
    MediumRough,             !- Roughness
    0.2032,                  !- Thickness {m}
    1.95,                    !- Conductivity {W/m-K}
    2240,                    !- Density {kg/m3}
    900,                     !- Specific Heat {J/kg-K}
    0.9,                     !- Thermal Absorptance
    0.7,                     !- Solar Absorptance
    0.7;                     !- Visible Absorptance

Material,
    M05 200mm concrete block,!- Name
    MediumRough,             !- Roughness
    0.1016,                  !- Thickness {m}
    1.11,                    !- Conductivity {W/m-K}
    800,                     !- Density {kg/m3}
    920,                     !- Specific Heat {J/kg-K}
    0.9,                     !- Thermal Absorptance
    0.7,                     !- Solar Absorptance
    0.7;                     !- Visible Absorptance

Material,
    Mass wood,               !- Name
    MediumSmooth,            !- Roughness
    0.065532,                !- Thickness {m}
    0.15,                    !- Conductivity {W/m-K}
    608.701223809829,        !- Density {kg/m3}
    1630,                    !- Specific Heat {J/kg-K}
    0.9,                     !- Thermal Absorptance
    0.7,                     !- Solar Absorptance
    0.7;                     !- Visible Absorptance

Material,
    Foundation EPS,          !- Name
    MediumSmooth,            !- Roughness
    0.0508,                  !- Thickness {m}
    0.02884,                 !- Conductivity {W/m-K}
    29,                      !- Density {kg/m3}
    1210,                    !- Specific Heat {J/kg-K}
    0.9,                     !- Thermal Absorptance
    0.7,                     !- Solar Absorptance
    0.7;                     !- Visible Absorptance

Material,
    EPS,                     !- Name
    MediumSmooth,            !- Roughness
    0.0508,                  !- Thickness {m}
    0.02884,                 !- Conductivity {W/m-K}
    29,                      !- Density {kg/m3}
    1210,                    !- Specific Heat {J/kg-K}
    0.9,                     !- Thermal Absorptance
    0.7,                     !- Solar Absorptance
    0.7;                     !- Visible Absorptance

Material,
    F11 Wood siding,         !- Name
    MediumSmooth,            !- Roughness
    0.0127,                  !- Thickness {m}
    0.09,                    !- Conductivity {W/m-K}
    592,                     !- Density {kg/m3}
    1170,                    !- Specific Heat {J/kg-K}
    0.9,                     !- Thermal Absorptance
    0.7,                     !- Solar Absorptance
    0.7;                     !- Visible Absorptance

Material,
    R-11 3.5in Wood Stud,    !- Name
    VeryRough,               !- Roughness
    0.0889,                  !- Thickness {m}
    0.05426246,              !- Conductivity {W/m-K}
    19,                      !- Density {kg/m3}
    960,                     !- Specific Heat {J/kg-K}
    0.9,                     !- Thermal Absorptance
    0.7,                     !- Solar Absorptance
    0.7;                     !- Visible Absorptance

Material,
    Plywood (Douglas Fir) - 12.7mm,  !- Name
    Smooth,                  !- Roughness
    0.0127,                  !- Thickness {m}
    0.12,                    !- Conductivity {W/m-K}
    540,                     !- Density {kg/m3}
    1210,                    !- Specific Heat {J/kg-K}
    0.9,                     !- Thermal Absorptance
    0.7,                     !- Solar Absorptance
    0.7;                     !- Visible Absorptance

Material,
    EPS 1in,                 !- Name
    MediumSmooth,            !- Roughness
    0.0254,                  !- Thickness {m}
    0.02884,                 !- Conductivity {W/m-K}
    29,                      !- Density {kg/m3}
    1210,                    !- Specific Heat {J/kg-K}
    0.9,                     !- Thermal Absorptance
    0.7,                     !- Solar Absorptance
    0.7;                     !- Visible Absorptance

Material,
    EPS 1.625in,             !- Name
    MediumSmooth,            !- Roughness
    0.041275,                !- Thickness {m}
    0.02884,                 !- Conductivity {W/m-K}
    29,                      !- Density {kg/m3}
    1210,                    !- Specific Heat {J/kg-K}
    0.9,                     !- Thermal Absorptance
    0.7,                     !- Solar Absorptance
    0.7;                     !- Visible Absorptance

Material,