!- Windows Line endings 

VERSION,
    9.5;                      !- Version Identifier

SIMULATIONCONTROL,
    Yes,                      !- Do Zone Sizing Calculation
    Yes,                      !- Do System Sizing Calculation
    No,                       !- Do Plant Sizing Calculation
    No,                       !- Run Simulation for Sizing Periods
    Yes,                      !- Run Simulation for Weather File Run Periods
    Yes,                      !- Do HVAC Sizing Simulation for Sizing Periods
    25;                       !- Maximum Number of HVAC Sizing Simulation Passes

BUILDING,
    test-3-20-23_Test 3,      !- Name
    0,                        !- North Axis
    City,                     !- Terrain
    0.04,                     !- Loads Convergence Tolerance Value
    0.4,                      !- Temperature Convergence Tolerance Value
    FullInteriorAndExterior,    !- Solar Distribution
    25,                       !- Maximum Number of Warmup Days
    6;                        !- Minimum Number of Warmup Days

ZONEAIRCONTAMINANTBALANCE,
    Yes,                      !- Carbon Dioxide Concentration
    CO2_Schedule,             !- Outdoor Carbon Dioxide Schedule Name
    No;                       !- Generic Contaminant Concentration

TIMESTEP,
    4;                        !- Number of Timesteps per Hour

SizingPeriod:DesignDay,
    Chicago Midway Ap Ann Htg 99.6% Condns DB,    !- Name
    1,                        !- Month
    21,                       !- Day of Month
    WinterDesignDay,          !- Day Type
    -18.7,                    !- Maximum DryBulb Temperature
    0,                        !- Daily DryBulb Temperature Range
    DefaultMultipliers,       !- DryBulb Temperature Range Modifier Type
    ,                         !- DryBulb Temperature Range Modifier Day Schedule Name
    Wetbulb,                  !- Humidity Condition Type
    -18.7,                    !- Wetbulb or DewPoint at Maximum DryBulb
    ,                         !- Humidity Condition Day Schedule Name
    ,                         !- Humidity Ratio at Maximum DryBulb
    ,                         !- Enthalpy at Maximum DryBulb
    ,                         !- Daily WetBulb Temperature Range
    99110,                    !- Barometric Pressure
    5.3,                      !- Wind Speed
    300,                      !- Wind Direction
    No,                       !- Rain Indicator
    No,                       !- Snow Indicator
    No,                       !- Daylight Saving Time Indicator
    ASHRAEClearSky,           !- Solar Model Indicator
    ,                         !- Beam Solar Day Schedule Name
    ,                         !- Diffuse Solar Day Schedule Name
    ,                         !- ASHRAE Clear Sky Optical Depth for Beam Irradiance taub
    ,                         !- ASHRAE Clear Sky Optical Depth for Diffuse Irradiance taud
    0;                        !- Sky Clearness

SizingPeriod:DesignDay,
    Chicago Midway Ap Ann Htg 99% Condns DB,    !- Name
    1,                        !- Month
    21,                       !- Day of Month
    WinterDesignDay,          !- Day Type
    -15.4,                    !- Maximum DryBulb Temperature
    0,                        !- Daily DryBulb Temperature Range
    DefaultMultipliers,       !- DryBulb Temperature Range Modifier Type
    ,                         !- DryBulb Temperature Range Modifier Day Schedule Name
    Wetbulb,                  !- Humidity Condition Type
    -15.4,                    !- Wetbulb or DewPoint at Maximum DryBulb
    ,                         !- Humidity Condition Day Schedule Name
    ,                         !- Humidity Ratio at Maximum DryBulb
    ,                         !- Enthalpy at Maximum DryBulb
    ,                         !- Daily WetBulb Temperature Range
    99110,                    !- Barometric Pressure
    5.3,                      !- Wind Speed
    300,                      !- Wind Direction
    No,                       !- Rain Indicator
    No,                       !- Snow Indicator
    No,                       !- Daylight Saving Time Indicator
    ASHRAEClearSky,           !- Solar Model Indicator
    ,                         !- Beam Solar Day Schedule Name
    ,                         !- Diffuse Solar Day Schedule Name
    ,                         !- ASHRAE Clear Sky Optical Depth for Beam Irradiance taub
    ,                         !- ASHRAE Clear Sky Optical Depth for Diffuse Irradiance taud
    0;                        !- Sky Clearness

SizingPeriod:DesignDay,
    Chicago Midway Ap Ann Clg .4% Condns DB=>MWB,    !- Name
    7,                        !- Month
    21,                       !- Day of Month
    SummerDesignDay,          !- Day Type
    33.4,                     !- Maximum DryBulb Temperature
    8.8,                      !- Daily DryBulb Temperature Range
    DefaultMultipliers,       !- DryBulb Temperature Range Modifier Type
    ,                         !- DryBulb Temperature Range Modifier Day Schedule Name
    Wetbulb,                  !- Humidity Condition Type
    23.8,                     !- Wetbulb or DewPoint at Maximum DryBulb
    ,                         !- Humidity Condition Day Schedule Name
    ,                         !- Humidity Ratio at Maximum DryBulb
    ,                         !- Enthalpy at Maximum DryBulb
    ,                         !- Daily WetBulb Temperature Range
    99110,                    !- Barometric Pressure
    5.6,                      !- Wind Speed
    220,                      !- Wind Direction
    No,                       !- Rain Indicator
    No,                       !- Snow Indicator
    No,                       !- Daylight Saving Time Indicator
    ASHRAETau,                !- Solar Model Indicator
    ,                         !- Beam Solar Day Schedule Name
    ,                         !- Diffuse Solar Day Schedule Name
    0.457,                    !- ASHRAE Clear Sky Optical Depth for Beam Irradiance taub
    2.043;                    !- ASHRAE Clear Sky Optical Depth for Diffuse Irradiance taud

SizingPeriod:DesignDay,
    Chicago Midway Ap Ann Clg 1% Condns DB=>MWB,    !- Name
    7,                        !- Month
    21,                       !- Day of Month
    SummerDesignDay,          !- Day Type
    32,                       !- Maximum DryBulb Temperature
    8.8,                      !- Daily DryBulb Temperature Range
    DefaultMultipliers,       !- DryBulb Temperature Range Modifier Type
    ,                         !- DryBulb Temperature Range Modifier Day Schedule Name
    Wetbulb,                  !- Humidity Condition Type
    23,                       !- Wetbulb or DewPoint at Maximum DryBulb
    ,                         !- Humidity Condition Day Schedule Name
    ,                         !- Humidity Ratio at Maximum DryBulb
    ,                         !- Enthalpy at Maximum DryBulb
    ,                         !- Daily WetBulb Temperature Range
    99110,                    !- Barometric Pressure
    5.6,                      !- Wind Speed
    220,                      !- Wind Direction
    No,                       !- Rain Indicator
    No,                       !- Snow Indicator
    No,                       !- Daylight Saving Time Indicator
    ASHRAETau,                !- Solar Model Indicator
    ,                         !- Beam Solar Day Schedule Name
    ,                         !- Diffuse Solar Day Schedule Name
    0.457,                    !- ASHRAE Clear Sky Optical Depth for Beam Irradiance taub
    2.043;                    !- ASHRAE Clear Sky Optical Depth for Diffuse Irradiance taud

RUNPERIOD,
    Annual,                   !- Name
    1,                        !- Begin Month
    1,                        !- Begin Day of Month
    ,                         !- Begin Year
    12,                       !- End Month
    31,                       !- End Day of Month
    ,                         !- End Year
    ,                         !- Day of Week for Start Day
    Yes,                      !- Use Weather File Holidays and Special Days
    Yes,                      !- Use Weather File Daylight Saving Period
    No,                       !- Apply Weekend Holiday Rule
    Yes,                      !- Use Weather File Rain Indicators
    Yes,                      !- Use Weather File Snow Indicators
    No;                       !- Treat Weather as Actual

SCHEDULETYPELIMITS,
    Number,                   !- Name
    ,                         !- Lower Limit Value
    ,                         !- Upper Limit Value
    ,                         !- Numeric Type
    Dimensionless;            !- Unit Type

SCHEDULETYPELIMITS,
    Any Number,               !- Name
    ,                         !- Lower Limit Value
    ,                         !- Upper Limit Value
    ,                         !- Numeric Type
    Dimensionless;            !- Unit Type

SCHEDULETYPELIMITS,
    Fraction,                 !- Name
    ,                         !- Lower Limit Value
    ,                         !- Upper Limit Value
    ,                         !- Numeric Type
    Dimensionless;            !- Unit Type

SCHEDULETYPELIMITS,
    On/Off,                   !- Name
    ,                         !- Lower Limit Value
    ,                         !- Upper Limit Value
    ,                         !- Numeric Type
    Dimensionless;            !- Unit Type

SCHEDULE:COMPACT,
    Phius_Lighting,           !- Name
    Fraction,                 !- Schedule Type Limits Name
    Through: 12/31,           !- Field 1
    For: SummerDesignDay,     !- Field 2
    Until: 24:00,             !- Field 3
    1,                        !- Field 4
    For: AllOtherDays,        !- Field 5
    Until: 24:00,             !- Field 6
    0;                        !- Field 7

SCHEDULE:COMPACT,
    Phius_MELs,               !- Name
    Fraction,                 !- Schedule Type Limits Name
    Through: 12/31,           !- Field 1
    For: SummerDesignDay,     !- Field 2
    Until: 24:00,             !- Field 3
    1,                        !- Field 4
    For: AllOtherDays,        !- Field 5
    Until: 24:00,             !- Field 6
    0;                        !- Field 7

SCHEDULE:COMPACT,
    Occupant_Activity_Schedule,    !- Name
    Any Number,               !- Schedule Type Limits Name
    Through: 12/31,           !- Field 1
    For: AllDays,             !- Field 2
    Until: 24:00,             !- Field 3
    120;                      !- Field 4

SCHEDULE:COMPACT,
    Occupant_Eff_Schedule,    !- Name
    Any Number,               !- Schedule Type Limits Name
    Through: 12/31,           !- Field 1
    For: AllDays,             !- Field 2
    Until: 24:00,             !- Field 3
    0;                        !- Field 4

SCHEDULE:COMPACT,
    Occupant_Clothing_Schedule,    !- Name
    Any Number,               !- Schedule Type Limits Name
    Through: 04/30,           !- Field 1
    For: AllDays,             !- Field 2
    Until: 24:00,             !- Field 3
    1,                        !- Field 4
    Through: 09/30,           !- Field 5
    For: AllDays,             !- Field 6
    Until: 24:00,             !- Field 7
    0.3,                      !- Field 8
    Through: 12/31,           !- Field 9
    For: AllDays,             !- Field 10
    Until: 24:00,             !- Field 11
    1;                        !- Field 12

SCHEDULE:COMPACT,
    CO2_Schedule,             !- Name
    Fraction,                 !- Schedule Type Limits Name
    Through: 12/31,           !- Field 1
    For: AllDays,             !- Field 2
    Until: 24:00,             !- Field 3
    500;                      !- Field 4

SCHEDULE:COMPACT,
    OUTAGE:Occupant_Schedule,    !- Name
    Fraction,                 !- Schedule Type Limits Name
    Through: 12/31,           !- Field 1
    For: AllDays,             !- Field 2
    Until: 24:00,             !- Field 3
    1;                        !- Field 4

SCHEDULE:COMPACT,
    PTHP_Avail,               !- Name
    Fraction,                 !- Schedule Type Limits Name
    Through: 26-Jan,          !- Field 1
    For: AllDays,             !- Field 2
    Until: 24:00,             !- Field 3
    1,                        !- Field 4
    Through: 10-Feb,          !- Field 5
    For: AllDays,             !- Field 6
    Until: 24:00,             !- Field 7
    0,                        !- Field 8
    Through: 19-Jul,          !- Field 9
    For: AllDays,             !- Field 10
    Until: 24:00,             !- Field 11
    1,                        !- Field 12
    Through: 30-Jul,          !- Field 13
    For: AllDays,             !- Field 14
    Until: 24:00,             !- Field 15
    0,                        !- Field 16
    Through: 12/31,           !- Field 17
    For: AllDays,             !- Field 18
    Until: 24:00,             !- Field 19
    1;                        !- Field 20

SCHEDULE:COMPACT,
    NatVent,                  !- Name
    On/Off,                   !- Schedule Type Limits Name
    Through: 19-Jul,          !- Field 1
    For: SummerDesignDay,     !- Field 2
    Until: 24:00,             !- Field 3
    0,                        !- Field 4
    For: AllOtherDays,        !- Field 5
    Until: 24:00,             !- Field 6
    0,                        !- Field 7
    Through: 30-Jul,          !- Field 8
    For: SummerDesignDay,     !- Field 9
    Until: 24:00,             !- Field 10
    0,                        !- Field 11
    For: AllOtherDays,        !- Field 12
    Until: 24:00,             !- Field 13
    1,                        !- Field 14
    Through: 12/31,           !- Field 15
    For: AllDays,             !- Field 16
    Until: 24:00,             !- Field 17
    0;                        !- Field 18

SCHEDULE:COMPACT,
    SchNatVent,               !- Name
    On/Off,                   !- Schedule Type Limits Name
    Through: 19-Jul,          !- Field 1
    For: SummerDesignDay,     !- Field 2
    Until: 24:00,             !- Field 3
    0,                        !- Field 4
    For: AllOtherDays,        !- Field 5
    Until: 24:00,             !- Field 6
    0,                        !- Field 7
    Through: 30-Jul,          !- Field 8
    For: SummerDesignDay,     !- Field 9
    Until: 24:00,             !- Field 10
    0,                        !- Field 11
    For: AllOtherDays,        !- Field 12
    Until: 24:00,             !- Field 13
    1,                        !- Field 14
    Through: 12/31,           !- Field 15
    For: AllDays,             !- Field 16
    Until: 24:00,             !- Field 17
    0;                        !- Field 18

SCHEDULE:COMPACT,
    OutageCooling,            !- Name
    On/Off,                   !- Schedule Type Limits Name
    Through: 19-Jul,          !- Field 1
    For: AllDays,             !- Field 2
    Until: 24:00,             !- Field 3
    1,                        !- Field 4
    Through: 30-Jul,          !- Field 5
    For: AllDays,             !- Field 6
    Until: 24:00,             !- Field 7
    0,                        !- Field 8
    Through: 12/31,           !- Field 9
    For: AllDays,             !- Field 10
    Until: 24:00,             !- Field 11
    1;                        !- Field 12

SCHEDULE:COMPACT,
    Demand Control Cooling,    !- Name
    On/Off,                   !- Schedule Type Limits Name
    Through: 19-Jul,          !- Field 1
    For: AllDays,             !- Field 2
    Until: 24:00,             !- Field 3
    0,                        !- Field 4
    Through: 30-Jul,          !- Field 5
    For: AllDays,             !- Field 6
    Until: 24:00,             !- Field 7
    0,                        !- Field 8
    Through: 12/31,           !- Field 9
    For: AllDays,             !- Field 10
    Until: 24:00,             !- Field 11
    0;                        !- Field 12

SCHEDULE:COMPACT,
    Shading Availible,        !- Name
    On/Off,                   !- Schedule Type Limits Name
    Through: 19-Jul,          !- Field 1
    For: AllDays,             !- Field 2
    Until: 24:00,             !- Field 3
    0,                        !- Field 4
    Through: 30-Jul,          !- Field 5
    For: AllDays,             !- Field 6
    Until: 24:00,             !- Field 7
    0,                        !- Field 8
    Through: 12/31,           !- Field 9
    For: AllDays,             !- Field 10
    Until: 24:00,             !- Field 11
    0;                        !- Field 12

SCHEDULE:COMPACT,
    SizingLoads,              !- Name
    On/Off,                   !- Schedule Type Limits Name
    Through: 12/31,           !- Field 1
    For: SummerDesignDay,     !- Field 2
    Until: 24:00,             !- Field 3
    1,                        !- Field 4
    For: AllOtherDays,        !- Field 5
    Until: 24:00,             !- Field 6
    0;                        !- Field 7

SCHEDULE:CONSTANT,
    WindowFraction2,          !- Name
    Any Number,               !- Schedule Type Limits Name
    0;                        !- Hourly Value

SCHEDULE:CONSTANT,
    HVAC_ALWAYS_4,            !- Name
    Any Number,               !- Schedule Type Limits Name
    4;                        !- Hourly Value

SCHEDULE:CONSTANT,
    Phius_68F,                !- Name
    Any Number,               !- Schedule Type Limits Name
    20;                       !- Hourly Value

SCHEDULE:CONSTANT,
    Phius_77F,                !- Name
    Any Number,               !- Schedule Type Limits Name
    25;                       !- Hourly Value

SCHEDULE:CONSTANT,
    HUMIDITY_SETPOINT,        !- Name
    Any Number,               !- Schedule Type Limits Name
    60;                       !- Hourly Value

SCHEDULE:CONSTANT,
    AirVelocitySch,           !- Name
    Any Number,               !- Schedule Type Limits Name
    0.16;                     !- Hourly Value

SCHEDULE:CONSTANT,
    Always_On,                !- Name
    Any Number,               !- Schedule Type Limits Name
    1;                        !- Hourly Value

SCHEDULE:CONSTANT,
    Always Off,               !- Name
    Any Number,               !- Schedule Type Limits Name
    0;                        !- Hourly Value

SCHEDULE:CONSTANT,
    ERV_Avail,                !- Name
    Any Number,               !- Schedule Type Limits Name
    1;                        !- Hourly Value

MATERIAL,
    M01_100mm_brick,          !- Name
    MediumRough,              !- Roughness
    0.1016,                   !- Thickness
    0.89,                     !- Conductivity
    1920,                     !- Density
    790,                      !- Specific Heat
    0.9,                      !- Thermal Absorptance
    0.7,                      !- Solar Absorptance
    0.7;                      !- Visible Absorptance

MATERIAL,
    G05_25mm_wood,            !- Name
    MediumSmooth,             !- Roughness
    0.0254,                   !- Thickness
    0.15,                     !- Conductivity
    608,                      !- Density
    1630,                     !- Specific Heat
    0.9,                      !- Thermal Absorptance
    0.7,                      !- Solar Absorptance
    0.7;                      !- Visible Absorptance

MATERIAL,
    F08_Metal_surface,        !- Name
    Smooth,                   !- Roughness
    0.0008,                   !- Thickness
    45.28,                    !- Conductivity
    7824,                     !- Density
    500,                      !- Specific Heat
    0.9,                      !- Thermal Absorptance
    0.7,                      !- Solar Absorptance
    0.7;                      !- Visible Absorptance

MATERIAL,
    I01_25mm_insulation_board,    !- Name
    MediumRough,              !- Roughness
    0.0254,                   !- Thickness
    0.03,                     !- Conductivity
    43,                       !- Density
    1210,                     !- Specific Heat
    0.9,                      !- Thermal Absorptance
    0.7,                      !- Solar Absorptance
    0.7;                      !- Visible Absorptance

MATERIAL,
    I02_50mm_insulation_board,    !- Name
    MediumRough,              !- Roughness
    0.0508,                   !- Thickness
    0.03,                     !- Conductivity
    43,                       !- Density
    1210,                     !- Specific Heat
    0.9,                      !- Thermal Absorptance
    0.7,                      !- Solar Absorptance
    0.7;                      !- Visible Absorptance

MATERIAL,
    G01a_19mm_gypsum_board,    !- Name
    MediumSmooth,             !- Roughness
    0.019,                    !- Thickness
    0.16,                     !- Conductivity
    800,                      !- Density
    1090,                     !- Specific Heat
    0.9,                      !- Thermal Absorptance
    0.7,                      !- Solar Absorptance
    0.7;                      !- Visible Absorptance

MATERIAL,
    M11_100mm_lightweight_concrete,    !- Name
    MediumRough,              !- Roughness
    0.1016,                   !- Thickness
    0.53,                     !- Conductivity
    1280,                     !- Density
    840,                      !- Specific Heat
    0.9,                      !- Thermal Absorptance
    0.7,                      !- Solar Absorptance
    0.7;                      !- Visible Absorptance

MATERIAL,
    F16_Acoustic_tile,        !- Name
    MediumSmooth,             !- Roughness
    0.0191,                   !- Thickness
    0.06,                     !- Conductivity
    368,                      !- Density
    590,                      !- Specific Heat
    0.9,                      !- Thermal Absorptance
    0.7,                      !- Solar Absorptance
    0.7;                      !- Visible Absorptance

MATERIAL,
    M15_200mm_heavyweight_concrete,    !- Name
    MediumRough,              !- Roughness
    0.2032,                   !- Thickness
    1.95,                     !- Conductivity
    2240,                     !- Density
    900,                      !- Specific Heat
    0.9,                      !- Thermal Absorptance
    0.7,                      !- Solar Absorptance
    0.7;                      !- Visible Absorptance

MATERIAL,
    M05_200mm_concrete_block,    !- Name
    MediumRough,              !- Roughness
    0.1016,                   !- Thickness
    1.11,                     !- Conductivity
    800,                      !- Density
    920,                      !- Specific Heat
    0.9,                      !- Thermal Absorptance
    0.7,                      !- Solar Absorptance
    0.7;                      !- Visible Absorptance

MATERIAL,
    Mass_wood,                !- Name
    MediumSmooth,             !- Roughness
    0.065532,                 !- Thickness
    0.15,                     !- Conductivity
    608.701223809829,         !- Density
    1630,                     !- Specific Heat
    0.9,                      !- Thermal Absorptance
    0.7,                      !- Solar Absorptance
    0.7;                      !- Visible Absorptance

MATERIAL,
    Foundation_EPS,           !- Name
    MediumSmooth,             !- Roughness
    0.0508,                   !- Thickness
    0.02884,                  !- Conductivity
    29,                       !- Density
    1210,                     !- Specific Heat
    0.9,                      !- Thermal Absorptance
    0.7,                      !- Solar Absorptance
    0.7;                      !- Visible Absorptance

MATERIAL,
    EPS,                      !- Name
    MediumSmooth,             !- Roughness
    0.0508,                   !- Thickness
    0.02884,                  !- Conductivity
    29,                       !- Density
    1210,                     !- Specific Heat
    0.9,                      !- Thermal Absorptance
    0.7,                      !- Solar Absorptance
    0.7;                      !- Visible Absorptance

MATERIAL,
    F11_Wood_siding,          !- Name
    MediumSmooth,             !- Roughness
    0.0127,                   !- Thickness
    0.09,                     !- Conductivity
    592,                      !- Density
    1170,                     !- Specific Heat
    0.9,                      !- Thermal Absorptance
    0.7,                      !- Solar Absorptance
    0.7;                      !- Visible Absorptance

MATERIAL,
    R-11_3.5in_Wood_Stud,     !- Name
    VeryRough,                !- Roughness
    0.0889,                   !- Thickness
    0.05426246,               !- Conductivity
    19,                       !- Density
    960,                      !- Specific Heat
    0.9,                      !- Thermal Absorptance
    0.7,                      !- Solar Absorptance
    0.7;                      !- Visible Absorptance

MATERIAL,
    Plywood_(Douglas_Fir)_-_12.7mm,    !- Name
    Smooth,                   !- Roughness
    0.0127,                   !- Thickness
    0.12,                     !- Conductivity
    540,                      !- Density
    1210,                     !- Specific Heat
    0.9,                      !- Thermal Absorptance
    0.7,                      !- Solar Absorptance
    0.7;                      !- Visible Absorptance

MATERIAL,
    EPS_1in,                  !- Name
    MediumSmooth,             !- Roughness
    0.0254,                   !- Thickness
    0.02884,                  !- Conductivity
    29,                       !- Density
    1210,                     !- Specific Heat
    0.9,                      !- Thermal Absorptance
    0.7,                      !- Solar Absorptance
    0.7;                      !- Visible Absorptance

MATERIAL,
    EPS_1.625in,              !- Name
    MediumSmooth,             !- Roughness
    0.041275,                 !- Thickness
    0.02884,                  !- Conductivity
    29,                       !- Density
    1210,                     !- Specific Heat
    0.9,                      !- Thermal Absorptance
    0.7,                      !- Solar Absorptance
    0.7;                      !- Visible Absorptance

MATERIAL,
    EPS_2in,                  !- Name
    MediumSmooth,             !- Roughness
    0.0508,                   !- Thickness
    0.02884,                  !- Conductivity
    29,                       !- Density
    1210,                     !- Specific Heat
    0.9,                      !- Thermal Absorptance
    0.7,                      !- Solar Absorptance
    0.7;                      !- Visible Absorptance

MATERIAL,
    EPS_4in,                  !- Name
    MediumSmooth,             !- Roughness
    0.1016,                   !- Thickness
    0.02884,                  !- Conductivity
    29,                       !- Density
    1210,                     !- Specific Heat
    0.9,                      !- Thermal Absorptance
    0.7,                      !- Solar Absorptance
    0.7;                      !- Visible Absorptance

MATERIAL,
    EPS_6in,                  !- Name
    MediumSmooth,             !- Roughness
    0.1524,                   !- Thickness
    0.02884,                  !- Conductivity
    29,                       !- Density
    1210,                     !- Specific Heat
    0.9,                      !- Thermal Absorptance
    0.7,                      !- Solar Absorptance
    0.7;                      !- Visible Absorptance

MATERIAL,
    EPS_7.5in,                !- Name
    MediumSmooth,             !- Roughness
    0.1905,                   !- Thickness
    0.02884,                  !- Conductivity
    29,                       !- Density
    1210,                     !- Specific Heat
    0.9,                      !- Thermal Absorptance
    0.7,                      !- Solar Absorptance
    0.7;                      !- Visible Absorptance

MATERIAL,
    EPS_9in,                  !- Name
    MediumSmooth,             !- Roughness
    0.1524,                   !- Thickness
    0.02884,                  !- Conductivity
    29,                       !- Density
    1210,                     !- Specific Heat
    0.9,                      !- Thermal Absorptance
    0.7,                      !- Solar Absorptance
    0.7;                      !- Visible Absorptance

MATERIAL,
    EPS_14in,                 !- Name
    MediumSmooth,             !- Roughness
    0.3556,                   !- Thickness
    0.02884,                  !- Conductivity
    29,                       !- Density
    1210,                     !- Specific Heat
    0.9,                      !- Thermal Absorptance
    0.7,                      !- Solar Absorptance
    0.7;                      !- Visible Absorptance

MATERIAL,
    FG_Attic_R-19,            !- Name
    MediumRough,              !- Roughness
    0.13716,                  !- Thickness
    0.04119794,               !- Conductivity
    64,                       !- Density
    960,                      !- Specific Heat
    0.9,                      !- Thermal Absorptance
    0.7,                      !- Solar Absorptance
    0.7;                      !- Visible Absorptance

MATERIAL,
    FG_Attic_R-30,            !- Name
    MediumRough,              !- Roughness
    0.21844,                  !- Thickness
    0.04119794,               !- Conductivity
    64,                       !- Density
    960,                      !- Specific Heat
    0.9,                      !- Thermal Absorptance
    0.7,                      !- Solar Absorptance
    0.7;                      !- Visible Absorptance

MATERIAL,
    FG_Attic_R-38,            !- Name
    MediumRough,              !- Roughness
    0.275844,                 !- Thickness
    0.04119794,               !- Conductivity
    64,                       !- Density
    960,                      !- Specific Heat
    0.9,                      !- Thermal Absorptance
    0.7,                      !- Solar Absorptance
    0.7;                      !- Visible Absorptance

MATERIAL,
    FG_Attic_R-49,            !- Name