!- Windows Line endings 

VERSION,
    9.5;                      !- Version Identifier

SIMULATIONCONTROL,
    Yes,                      !- Do Zone Sizing Calculation
    Yes,                      !- Do System Sizing Calculation
    No,                       !- Do Plant Sizing Calculation
    Yes,                      !- Run Simulation for Sizing Periods
    Yes,                      !- Run Simulation for Weather File Run Periods
    Yes,                      !- Do HVAC Sizing Simulation for Sizing Periods
    25;                       !- Maximum Number of HVAC Sizing Simulation Passes

BUILDING,
     p2_VancouverBC_IECC-0-04_Elec_DC,    !- Name
    0,                        !- North Axis
    City,                     !- Terrain
    0.04,                     !- Loads Convergence Tolerance Value
    0.4,                      !- Temperature Convergence Tolerance Value
    FullInteriorAndExterior,    !- Solar Distribution
    25,                       !- Maximum Number of Warmup Days
    6;                        !- Minimum Number of Warmup Days

ZONEAIRCONTAMINANTBALANCE,
    Yes,                      !- Carbon Dioxide Concentration
    CO2_Schedule,             !- Outdoor Carbon Dioxide Schedule Name
    No;                       !- Generic Contaminant Concentration

TIMESTEP,
    4;                        !- Number of Timesteps per Hour

SizingPeriod:DesignDay,
    Vancouver Int'l Ann Htg 99.6% Condns DB,    !- Name
    12,                       !- Month
    21,                       !- Day of Month
    WinterDesignDay,          !- Day Type
    -7,                       !- Maximum DryBulb Temperature
    0,                        !- Daily DryBulb Temperature Range
    DefaultMultipliers,       !- DryBulb Temperature Range Modifier Type
    ,                         !- DryBulb Temperature Range Modifier Day Schedule Name
    Wetbulb,                  !- Humidity Condition Type
    -7,                       !- Wetbulb or DewPoint at Maximum DryBulb
    ,                         !- Humidity Condition Day Schedule Name
    ,                         !- Humidity Ratio at Maximum DryBulb
    ,                         !- Enthalpy at Maximum DryBulb
    ,                         !- Daily WetBulb Temperature Range
    101301,                   !- Barometric Pressure
    2.9,                      !- Wind Speed
    100,                      !- Wind Direction
    No,                       !- Rain Indicator
    No,                       !- Snow Indicator
    No,                       !- Daylight Saving Time Indicator
    ASHRAEClearSky,           !- Solar Model Indicator
    ,                         !- Beam Solar Day Schedule Name
    ,                         !- Diffuse Solar Day Schedule Name
    ,                         !- ASHRAE Clear Sky Optical Depth for Beam Irradiance taub
    ,                         !- ASHRAE Clear Sky Optical Depth for Diffuse Irradiance taud
    0;                        !- Sky Clearness

SizingPeriod:DesignDay,
    Vancouver Int'l Ann Htg 99% Condns DB,    !- Name
    12,                       !- Month
    21,                       !- Day of Month
    WinterDesignDay,          !- Day Type
    -4,                       !- Maximum DryBulb Temperature
    0,                        !- Daily DryBulb Temperature Range
    DefaultMultipliers,       !- DryBulb Temperature Range Modifier Type
    ,                         !- DryBulb Temperature Range Modifier Day Schedule Name
    Wetbulb,                  !- Humidity Condition Type
    -4,                       !- Wetbulb or DewPoint at Maximum DryBulb
    ,                         !- Humidity Condition Day Schedule Name
    ,                         !- Humidity Ratio at Maximum DryBulb
    ,                         !- Enthalpy at Maximum DryBulb
    ,                         !- Daily WetBulb Temperature Range
    101301,                   !- Barometric Pressure
    2.9,                      !- Wind Speed
    100,                      !- Wind Direction
    No,                       !- Rain Indicator
    No,                       !- Snow Indicator
    No,                       !- Daylight Saving Time Indicator
    ASHRAEClearSky,           !- Solar Model Indicator
    ,                         !- Beam Solar Day Schedule Name
    ,                         !- Diffuse Solar Day Schedule Name
    ,                         !- ASHRAE Clear Sky Optical Depth for Beam Irradiance taub
    ,                         !- ASHRAE Clear Sky Optical Depth for Diffuse Irradiance taud
    0;                        !- Sky Clearness

SizingPeriod:DesignDay,
    Vancouver Int'l Ann Clg .4% Condns DB=>MWB,    !- Name
    8,                        !- Month
    21,                       !- Day of Month
    SummerDesignDay,          !- Day Type
    25,                       !- Maximum DryBulb Temperature
    7.6,                      !- Daily DryBulb Temperature Range
    DefaultMultipliers,       !- DryBulb Temperature Range Modifier Type
    ,                         !- DryBulb Temperature Range Modifier Day Schedule Name
    Wetbulb,                  !- Humidity Condition Type
    18.2,                     !- Wetbulb or DewPoint at Maximum DryBulb
    ,                         !- Humidity Condition Day Schedule Name
    ,                         !- Humidity Ratio at Maximum DryBulb
    ,                         !- Enthalpy at Maximum DryBulb
    ,                         !- Daily WetBulb Temperature Range
    101301,                   !- Barometric Pressure
    3.6,                      !- Wind Speed
    300,                      !- Wind Direction
    No,                       !- Rain Indicator
    No,                       !- Snow Indicator
    No,                       !- Daylight Saving Time Indicator
    ASHRAETau,                !- Solar Model Indicator
    ,                         !- Beam Solar Day Schedule Name
    ,                         !- Diffuse Solar Day Schedule Name
    0.371,                    !- ASHRAE Clear Sky Optical Depth for Beam Irradiance taub
    2.445;                    !- ASHRAE Clear Sky Optical Depth for Diffuse Irradiance taud

SizingPeriod:DesignDay,
    Vancouver Int'l Ann Clg 1% Condns DB=>MWB,    !- Name
    8,                        !- Month
    21,                       !- Day of Month
    SummerDesignDay,          !- Day Type
    23.5,                     !- Maximum DryBulb Temperature
    7.6,                      !- Daily DryBulb Temperature Range
    DefaultMultipliers,       !- DryBulb Temperature Range Modifier Type
    ,                         !- DryBulb Temperature Range Modifier Day Schedule Name
    Wetbulb,                  !- Humidity Condition Type
    17.7,                     !- Wetbulb or DewPoint at Maximum DryBulb
    ,                         !- Humidity Condition Day Schedule Name
    ,                         !- Humidity Ratio at Maximum DryBulb
    ,                         !- Enthalpy at Maximum DryBulb
    ,                         !- Daily WetBulb Temperature Range
    101301,                   !- Barometric Pressure
    3.6,                      !- Wind Speed
    300,                      !- Wind Direction
    No,                       !- Rain Indicator
    No,                       !- Snow Indicator
    No,                       !- Daylight Saving Time Indicator
    ASHRAETau,                !- Solar Model Indicator
    ,                         !- Beam Solar Day Schedule Name
    ,                         !- Diffuse Solar Day Schedule Name
    0.371,                    !- ASHRAE Clear Sky Optical Depth for Beam Irradiance taub
    2.445;                    !- ASHRAE Clear Sky Optical Depth for Diffuse Irradiance taud

RUNPERIOD,
    Annual,                   !- Name
    1,                        !- Begin Month
    1,                        !- Begin Day of Month
    ,                         !- Begin Year
    12,                       !- End Month
    31,                       !- End Day of Month
    ,                         !- End Year
    ,                         !- Day of Week for Start Day
    Yes,                      !- Use Weather File Holidays and Special Days
    Yes,                      !- Use Weather File Daylight Saving Period
    No,                       !- Apply Weekend Holiday Rule
    Yes,                      !- Use Weather File Rain Indicators
    Yes,                      !- Use Weather File Snow Indicators
    No;                       !- Treat Weather as Actual

MATERIAL,
    M01 100mm brick,          !- Name
    MediumRough,              !- Roughness
    0.1016,                   !- Thickness
    0.89,                     !- Conductivity
    1920,                     !- Density
    790,                      !- Specific Heat
    0.9,                      !- Thermal Absorptance
    0.7,                      !- Solar Absorptance
    0.7;                      !- Visible Absorptance

MATERIAL,
    G05 25mm wood,            !- Name
    MediumSmooth,             !- Roughness
    0.0254,                   !- Thickness
    0.15,                     !- Conductivity
    608,                      !- Density
    1630,                     !- Specific Heat
    0.9,                      !- Thermal Absorptance
    0.7,                      !- Solar Absorptance
    0.7;                      !- Visible Absorptance

MATERIAL,
    F08 Metal surface,        !- Name
    Smooth,                   !- Roughness
    0.0008,                   !- Thickness
    45.28,                    !- Conductivity
    7824,                     !- Density
    500,                      !- Specific Heat
    0.9,                      !- Thermal Absorptance
    0.7,                      !- Solar Absorptance
    0.7;                      !- Visible Absorptance

MATERIAL,
    I01 25mm insulation board,    !- Name
    MediumRough,              !- Roughness
    0.0254,                   !- Thickness
    0.03,                     !- Conductivity
    43,                       !- Density
    1210,                     !- Specific Heat
    0.9,                      !- Thermal Absorptance
    0.7,                      !- Solar Absorptance
    0.7;                      !- Visible Absorptance

MATERIAL,
    I02 50mm insulation board,    !- Name
    MediumRough,              !- Roughness
    0.0508,                   !- Thickness
    0.03,                     !- Conductivity
    43,                       !- Density
    1210,                     !- Specific Heat
    0.9,                      !- Thermal Absorptance
    0.7,                      !- Solar Absorptance
    0.7;                      !- Visible Absorptance

MATERIAL,
    G01a 19mm gypsum board,    !- Name
    MediumSmooth,             !- Roughness
    0.019,                    !- Thickness
    0.16,                     !- Conductivity
    800,                      !- Density
    1090,                     !- Specific Heat
    0.9,                      !- Thermal Absorptance
    0.7,                      !- Solar Absorptance
    0.7;                      !- Visible Absorptance

MATERIAL,
    M11 100mm lightweight concrete,    !- Name
    MediumRough,              !- Roughness
    0.1016,                   !- Thickness
    0.53,                     !- Conductivity
    1280,                     !- Density
    840,                      !- Specific Heat
    0.9,                      !- Thermal Absorptance
    0.7,                      !- Solar Absorptance
    0.7;                      !- Visible Absorptance

MATERIAL,
    F16 Acoustic tile,        !- Name
    MediumSmooth,             !- Roughness
    0.0191,                   !- Thickness
    0.06,                     !- Conductivity
    368,                      !- Density
    590,                      !- Specific Heat
    0.9,                      !- Thermal Absorptance
    0.7,                      !- Solar Absorptance
    0.7;                      !- Visible Absorptance

MATERIAL,
    M15 200mm heavyweight concrete,    !- Name
    MediumRough,              !- Roughness
    0.2032,                   !- Thickness
    1.95,                     !- Conductivity
    2240,                     !- Density
    900,                      !- Specific Heat
    0.9,                      !- Thermal Absorptance
    0.7,                      !- Solar Absorptance
    0.7;                      !- Visible Absorptance

MATERIAL,
    M05 200mm concrete block,    !- Name
    MediumRough,              !- Roughness
    0.1016,                   !- Thickness
    1.11,                     !- Conductivity
    800,                      !- Density
    920,                      !- Specific Heat
    0.9,                      !- Thermal Absorptance
    0.7,                      !- Solar Absorptance
    0.7;                      !- Visible Absorptance

MATERIAL,
    Mass wood,                !- Name
    MediumSmooth,             !- Roughness
    0.065532,                 !- Thickness
    0.15,                     !- Conductivity
    608.7012238,              !- Density
    1630,                     !- Specific Heat
    0.9,                      !- Thermal Absorptance
    0.7,                      !- Solar Absorptance
    0.7;                      !- Visible Absorptance

MATERIAL,
    Foundation EPS,           !- Name
    MediumSmooth,             !- Roughness
    0.0508,                   !- Thickness
    0.02884,                  !- Conductivity
    29,                       !- Density
    1210,                     !- Specific Heat
    0.9,                      !- Thermal Absorptance
    0.7,                      !- Solar Absorptance
    0.7;                      !- Visible Absorptance

MATERIAL,
    EPS,                      !- Name
    MediumSmooth,             !- Roughness
    0.0508,                   !- Thickness
    0.02884,                  !- Conductivity
    29,                       !- Density
    1210,                     !- Specific Heat
    0.9,                      !- Thermal Absorptance
    0.7,                      !- Solar Absorptance
    0.7;                      !- Visible Absorptance

MATERIAL,
    F11 Wood siding,          !- Name
    MediumSmooth,             !- Roughness
    0.0127,                   !- Thickness
    0.09,                     !- Conductivity
    592,                      !- Density
    1170,                     !- Specific Heat
    0.9,                      !- Thermal Absorptance
    0.7,                      !- Solar Absorptance
    0.7;                      !- Visible Absorptance

MATERIAL,
    R-11 3.5in Wood Stud,     !- Name
    VeryRough,                !- Roughness
    0.0889,                   !- Thickness
    0.05426246,               !- Conductivity
    19,                       !- Density
    960,                      !- Specific Heat
    0.9,                      !- Thermal Absorptance
    0.7,                      !- Solar Absorptance
    0.7;                      !- Visible Absorptance

MATERIAL,
    Plywood (Douglas Fir) - 12.7mm,    !- Name
    Smooth,                   !- Roughness
    0.0127,                   !- Thickness
    0.12,                     !- Conductivity
    540,                      !- Density
    1210,                     !- Specific Heat
    0.9,                      !- Thermal Absorptance
    0.7,                      !- Solar Absorptance
    0.7;                      !- Visible Absorptance

MATERIAL,
    EPS 1in,                  !- Name
    MediumSmooth,             !- Roughness
    0.0254,                   !- Thickness
    0.02884,                  !- Conductivity
    29,                       !- Density
    1210,                     !- Specific Heat
    0.9,                      !- Thermal Absorptance
    0.7,                      !- Solar Absorptance
    0.7;                      !- Visible Absorptance

MATERIAL,
    EPS 1.625in,              !- Name
    MediumSmooth,             !- Roughness
    0.041275,                 !- Thickness
    0.02884,                  !- Conductivity
    29,                       !- Density
    1210,                     !- Specific Heat
    0.9,                      !- Thermal Absorptance
    0.7,                      !- Solar Absorptance
    0.7;                      !- Visible Absorptance

MATERIAL,
    EPS 2in,                  !- Name
    MediumSmooth,             !- Roughness
    0.0508,                   !- Thickness
    0.02884,                  !- Conductivity
    29,                       !- Density
    1210,                     !- Specific Heat
    0.9,                      !- Thermal Absorptance
    0.7,                      !- Solar Absorptance
    0.7;                      !- Visible Absorptance

MATERIAL,
    EPS 4in,                  !- Name
    MediumSmooth,             !- Roughness
    0.1016,                   !- Thickness
    0.02884,                  !- Conductivity
    29,                       !- Density
    1210,                     !- Specific Heat
    0.9,                      !- Thermal Absorptance
    0.7,                      !- Solar Absorptance
    0.7;                      !- Visible Absorptance

MATERIAL,
    EPS 6in,                  !- Name
    MediumSmooth,             !- Roughness
    0.1524,                   !- Thickness
    0.02884,                  !- Conductivity
    29,                       !- Density
    1210,                     !- Specific Heat
    0.9,                      !- Thermal Absorptance
    0.7,                      !- Solar Absorptance
    0.7;                      !- Visible Absorptance

MATERIAL,
    EPS 7.5in,                !- Name
    MediumSmooth,             !- Roughness
    0.1905,                   !- Thickness
    0.02884,                  !- Conductivity
    29,                       !- Density
    1210,                     !- Specific Heat
    0.9,                      !- Thermal Absorptance
    0.7,                      !- Solar Absorptance
    0.7;                      !- Visible Absorptance

MATERIAL,
    EPS 9in,                  !- Name
    MediumSmooth,             !- Roughness
    0.1524,                   !- Thickness
    0.02884,                  !- Conductivity
    29,                       !- Density
    1210,                     !- Specific Heat
    0.9,                      !- Thermal Absorptance
    0.7,                      !- Solar Absorptance
    0.7;                      !- Visible Absorptance

MATERIAL,
    EPS 14in,                 !- Name
    MediumSmooth,             !- Roughness
    0.3556,                   !- Thickness
    0.02884,                  !- Conductivity
    29,                       !- Density
    1210,                     !- Specific Heat
    0.9,                      !- Thermal Absorptance
    0.7,                      !- Solar Absorptance
    0.7;                      !- Visible Absorptance

MATERIAL,
    FG Attic R-19,            !- Name
    MediumRough,              !- Roughness
    0.13716,                  !- Thickness
    0.04119794,               !- Conductivity
    64,                       !- Density
    960,                      !- Specific Heat
    0.9,                      !- Thermal Absorptance
    0.7,                      !- Solar Absorptance
    0.7;                      !- Visible Absorptance

MATERIAL,
    FG Attic R-30,            !- Name
    MediumRough,              !- Roughness
    0.21844,                  !- Thickness
    0.04119794,               !- Conductivity
    64,                       !- Density
    960,                      !- Specific Heat
    0.9,                      !- Thermal Absorptance
    0.7,                      !- Solar Absorptance
    0.7;                      !- Visible Absorptance

MATERIAL,
    FG Attic R-38,            !- Name
    MediumRough,              !- Roughness
    0.275844,                 !- Thickness
    0.04119794,               !- Conductivity
    64,                       !- Density
    960,                      !- Specific Heat
    0.9,                      !- Thermal Absorptance
    0.7,                      !- Solar Absorptance
    0.7;                      !- Visible Absorptance

MATERIAL,
    FG Attic R-49,            !- Name
    MediumRough,              !- Roughness
    0.3556,                   !- Thickness
    0.04119794,               !- Conductivity
    64,                       !- Density
    960,                      !- Specific Heat
    0.9,                      !- Thermal Absorptance
    0.7,                      !- Solar Absorptance
    0.7;                      !- Visible Absorptance

MATERIAL,
    FG Attic R-55,            !- Name
    MediumRough,              !- Roughness
    0.3991229,                !- Thickness
    0.04119794,               !- Conductivity
    64,                       !- Density
    960,                      !- Specific Heat
    0.9,                      !- Thermal Absorptance
    0.7,                      !- Solar Absorptance
    0.7;                      !- Visible Absorptance

MATERIAL,
    FG Attic R-60,            !- Name
    MediumRough,              !- Roughness
    0.3556,                   !- Thickness
    0.04119794,               !- Conductivity
    64,                       !- Density
    960,                      !- Specific Heat
    0.9,                      !- Thermal Absorptance
    0.7,                      !- Solar Absorptance
    0.7;                      !- Visible Absorptance

MATERIAL,
    FG Attic R-75,            !- Name
    MediumRough,              !- Roughness
    0.54356,                  !- Thickness
    0.04119794,               !- Conductivity
    64,                       !- Density
    960,                      !- Specific Heat
    0.9,                      !- Thermal Absorptance
    0.7,                      !- Solar Absorptance
    0.7;                      !- Visible Absorptance

MATERIAL,
    FG Attic R-100,           !- Name
    MediumRough,              !- Roughness
    0.72644,                  !- Thickness
    0.04119794,               !- Conductivity
    64,                       !- Density
    960,                      !- Specific Heat
    0.9,                      !- Thermal Absorptance
    0.7,                      !- Solar Absorptance
    0.7;                      !- Visible Absorptance

MATERIAL,
    ccSF R-13,                !- Name
    Rough,                    !- Roughness
    0.05503418,               !- Thickness
    0.024033814,              !- Conductivity
    32,                       !- Density
    920,                      !- Specific Heat
    0.9,                      !- Thermal Absorptance
    0.7,                      !- Solar Absorptance
    0.7;                      !- Visible Absorptance

MATERIAL,
    ccSF R-19,                !- Name
    Rough,                    !- Roughness
    0.080433418,              !- Thickness
    0.024033814,              !- Conductivity
    32,                       !- Density
    920,                      !- Specific Heat
    0.9,                      !- Thermal Absorptance
    0.7,                      !- Solar Absorptance
    0.7;                      !- Visible Absorptance

MATERIAL,
    ccSF R-30,                !- Name
    Rough,                    !- Roughness
    0.127,                    !- Thickness
    0.024033814,              !- Conductivity
    32,                       !- Density
    920,                      !- Specific Heat
    0.9,                      !- Thermal Absorptance
    0.7,                      !- Solar Absorptance
    0.7;                      !- Visible Absorptance

MATERIAL,
    ccSF R-38,                !- Name
    Rough,                    !- Roughness
    0.160866582,              !- Thickness
    0.024033814,              !- Conductivity
    32,                       !- Density
    920,                      !- Specific Heat
    0.9,                      !- Thermal Absorptance
    0.7,                      !- Solar Absorptance
    0.7;                      !- Visible Absorptance

MATERIAL,
    ccSF R-49,                !- Name
    Rough,                    !- Roughness
    0.207433418,              !- Thickness
    0.024033814,              !- Conductivity
    32,                       !- Density
    920,                      !- Specific Heat
    0.9,                      !- Thermal Absorptance
    0.7,                      !- Solar Absorptance
    0.7;                      !- Visible Absorptance

MATERIAL,
    StemWall UnIns,           !- Name
    MediumRough,              !- Roughness
    0.003175,                 !- Thickness
    0.53,                     !- Conductivity
    1280,                     !- Density
    840,                      !- Specific Heat
    0.9,                      !- Thermal Absorptance
    0.7,                      !- Solar Absorptance
    0.7;                      !- Visible Absorptance

MATERIAL:AIRGAP,
    F04 Wall air space resistance,    !- Name
    0.15;                     !- Thermal Resistance

MATERIAL:AIRGAP,
    F05 Ceiling air space resistance,    !- Name
    0.18;                     !- Thermal Resistance

WINDOWMATERIAL:SIMPLEGLAZINGSYSTEM,
    U-0.5 g=0.4,              !- Name
    2.8391315,                !- UFactor
    0.4;                      !- Solar Heat Gain Coefficient

WINDOWMATERIAL:SIMPLEGLAZINGSYSTEM,
    U-0.4 g=0.4,              !- Name
    2.2713052,                !- UFactor
    0.4;                      !- Solar Heat Gain Coefficient

WINDOWMATERIAL:SIMPLEGLAZINGSYSTEM,
    U-0.3 g=0.4,              !- Name
    1.7034789,                !- UFactor
    0.4;                      !- Solar Heat Gain Coefficient

WINDOWMATERIAL:SIMPLEGLAZINGSYSTEM,
    U-0.2 g=0.4,              !- Name
    1.1356526,                !- UFactor
    0.4;                      !- Solar Heat Gain Coefficient

WINDOWMATERIAL:SIMPLEGLAZINGSYSTEM,
    U-0.1 g=0.4,              !- Name
    0.5678263,                !- UFactor
    0.4;                      !- Solar Heat Gain Coefficient

WINDOWMATERIAL:SIMPLEGLAZINGSYSTEM,
    U-0.5 g=0.2,              !- Name
    2.8391315,                !- UFactor
    0.2;                      !- Solar Heat Gain Coefficient

WINDOWMATERIAL:SIMPLEGLAZINGSYSTEM,
    U-0.4 g=0.2,              !- Name
    2.2713052,                !- UFactor
    0.2;                      !- Solar Heat Gain Coefficient

WINDOWMATERIAL:SIMPLEGLAZINGSYSTEM,
    U-0.3 g=0.2,              !- Name
    1.7034789,                !- UFactor
    0.2;                      !- Solar Heat Gain Coefficient

WINDOWMATERIAL:SIMPLEGLAZINGSYSTEM,
    U-0.2 g=0.2,              !- Name
    1.1356526,                !- UFactor
    0.2;                      !- Solar Heat Gain Coefficient

WINDOWMATERIAL:SIMPLEGLAZINGSYSTEM,
    U-0.1 g=0.2,              !- Name
    0.5678263,                !- UFactor
    0.2;                      !- Solar Heat Gain Coefficient

WINDOWMATERIAL:SIMPLEGLAZINGSYSTEM,
    U-1.0 g=0.5,              !- Name
    5.678263,                 !- UFactor
    0.5;                      !- Solar Heat Gain Coefficient

WINDOWMATERIAL:SIMPLEGLAZINGSYSTEM,
    U-0.15 g=0.4,             !- Name
    0.85173945,               !- UFactor
    0.4;                      !- Solar Heat Gain Coefficient

WINDOWMATERIAL:SIMPLEGLAZINGSYSTEM,
    U-0.15 g=0.2,             !- Name
    0.85173945,               !- UFactor
    0.4;                      !- Solar Heat Gain Coefficient

WINDOWMATERIAL:SHADE,
    HighReflect,              !- Name
    0.1,                      !- Solar Transmittance
    0.8,                      !- Solar Reflectance
    0.1,                      !- Visible Transmittance
    0.8,                      !- Visible Reflectance
    0.8,                      !- Infrared Hemispherical Emissivity
    0.1,                      !- Infrared Transmittance
    0.005,                    !- Thickness
    0.1,                      !- Conductivity
    0.05,                     !- Shade to Glass Distance
    0.5,                      !- Top Opening Multiplier
    0.5,                      !- Bottom Opening Multiplier
    0.5,                      !- LeftSide Opening Multiplier
    0.5,                      !- RightSide Opening Multiplier
    0;                        !- Airflow Permeability

WINDOWMATERIAL:SHADE,
    MEDIUM REFLECT - MEDIUM TRANS SHADE,    !- Name
    0.4,                      !- Solar Transmittance
    0.5,                      !- Solar Reflectance
    0.4,                      !- Visible Transmittance
    0.5,                      !- Visible Reflectance
    0.9,                      !- Infrared Hemispherical Emissivity
    0,                        !- Infrared Transmittance
    0.005,                    !- Thickness
    0.1,                      !- Conductivity
    0.05,                     !- Shade to Glass Distance
    0.5,                      !- Top Opening Multiplier
    0.5,                      !- Bottom Opening Multiplier
    0.5,                      !- LeftSide Opening Multiplier
    0.5,                      !- RightSide Opening Multiplier
    0;                        !- Airflow Permeability

WINDOWMATERIAL:SHADE,
    HIGH REFLECT - LOW TRANS SHADE,    !- Name
    0.1,                      !- Solar Transmittance
    0.8,                      !- Solar Reflectance
    0.1,                      !- Visible Transmittance
    0.8,                      !- Visible Reflectance
    0.9,                      !- Infrared Hemispherical Emissivity
    0,                        !- Infrared Transmittance
    0.005,                    !- Thickness
    0.1,                      !- Conductivity
    0.05,                     !- Shade to Glass Distance
    0.5,                      !- Top Opening Multiplier
    0.5,                      !- Bottom Opening Multiplier
    0.5,                      !- LeftSide Opening Multiplier
    0.5,                      !- RightSide Opening Multiplier
    0;                        !- Airflow Permeability

CONSTRUCTION,
    Brick Wall,               !- Name
    M01 100mm brick;          !- Outside Layer

CONSTRUCTION,
    Ext_Door1,                !- Name
    G05 25mm wood;            !- Outside Layer

CONSTRUCTION,
    Thermal Mass,             !- Name